637366
  -OEChem-05192321513D

 20 20  0     0  0  0  0  0  0999 V2000
   -0.7568   -2.2955    0.0796 F   0  0  0  0  0  0  0  0  0  0  0  0
    1.0033   -0.2645    0.6730 O   0  0  0  0  0  0  0  0  0  0  0  0
   -0.2795    0.0159    0.3155 C   0  0  0  0  0  0  0  0  0  0  0  0
   -1.1643   -1.0204    0.0172 C   0  0  0  0  0  0  0  0  0  0  0  0
   -0.7099    1.3411    0.2487 C   0  0  0  0  0  0  0  0  0  0  0  0
    1.9969    0.7036    0.3395 C   0  0  0  0  0  0  0  0  0  0  0  0
   -2.4792   -0.7315   -0.3478 C   0  0  0  0  0  0  0  0  0  0  0  0
   -2.0248    1.6299   -0.1163 C   0  0  0  0  0  0  0  0  0  0  0  0
   -2.9094    0.5937   -0.4147 C   0  0  0  0  0  0  0  0  0  0  0  0
    3.3066    0.0080    0.1693 C   0  0  0  0  0  0  0  0  0  0  0  0
    4.0170    0.0197   -0.9639 C   0  0  0  0  0  0  0  0  0  0  0  0
   -0.0626    2.1760    0.5001 H   0  0  0  0  0  0  0  0  0  0  0  0
    1.7477    1.2374   -0.5870 H   0  0  0  0  0  0  0  0  0  0  0  0
    2.0819    1.4267    1.1588 H   0  0  0  0  0  0  0  0  0  0  0  0
   -3.1679   -1.5386   -0.5796 H   0  0  0  0  0  0  0  0  0  0  0  0
   -2.3623    2.6613   -0.1621 H   0  0  0  0  0  0  0  0  0  0  0  0
   -3.9336    0.8184   -0.6974 H   0  0  0  0  0  0  0  0  0  0  0  0
    3.6995   -0.5346    1.0251 H   0  0  0  0  0  0  0  0  0  0  0  0
    4.9644   -0.5051   -1.0230 H   0  0  0  0  0  0  0  0  0  0  0  0
    3.6718    0.5466   -1.8466 H   0  0  0  0  0  0  0  0  0  0  0  0
  1  4  1  0  0  0  0
  2  3  1  0  0  0  0
  2  6  1  0  0  0  0
  3  4  1  0  0  0  0
  3  5  2  0  0  0  0
  4  7  2  0  0  0  0
  5  8  1  0  0  0  0
  5 12  1  0  0  0  0
  6 10  1  0  0  0  0
  6 13  1  0  0  0  0
  6 14  1  0  0  0  0
  7  9  1  0  0  0  0
  7 15  1  0  0  0  0
  8  9  2  0  0  0  0
  8 16  1  0  0  0  0
  9 17  1  0  0  0  0
 10 11  2  0  0  0  0
 10 18  1  0  0  0  0
 11 19  1  0  0  0  0
 11 20  1  0  0  0  0
M  END
> <PUBCHEM_COMPOUND_CID>
637366

> <PUBCHEM_CONFORMER_RMSD>
0.6

> <PUBCHEM_CONFORMER_DIVERSEORDER>
1
7
11
10
13
4
8
3
2
6
12
9
5

> <PUBCHEM_MMFF94_PARTIAL_CHARGES>
18
1 -0.19
10 -0.29
11 -0.3
12 0.15
15 0.15
16 0.15
17 0.15
18 0.15
19 0.15
2 -0.36
20 0.15
3 0.08
4 0.19
5 -0.15
6 0.42
7 -0.15
8 -0.15
9 -0.15

> <PUBCHEM_EFFECTIVE_ROTOR_COUNT>
3

> <PUBCHEM_PHARMACOPHORE_FEATURES>
3
1 11 hydrophobe
1 2 acceptor
6 3 4 5 7 8 9 rings

> <PUBCHEM_HEAVY_ATOM_COUNT>
11

> <PUBCHEM_ATOM_DEF_STEREO_COUNT>
0

> <PUBCHEM_ATOM_UDEF_STEREO_COUNT>
0

> <PUBCHEM_BOND_DEF_STEREO_COUNT>
0

> <PUBCHEM_BOND_UDEF_STEREO_COUNT>
0

> <PUBCHEM_ISOTOPIC_ATOM_COUNT>
0

> <PUBCHEM_COMPONENT_COUNT>
1

> <PUBCHEM_CACTVS_TAUTO_COUNT>
1

> <PUBCHEM_CONFORMER_ID>
0009B9B600000001

> <PUBCHEM_MMFF94_ENERGY>
27.7594

> <PUBCHEM_FEATURE_SELFOVERLAP>
15.223

> <PUBCHEM_SHAPE_FINGERPRINT>
11206711 2 18337936948855145629
12032990 46 18267867357824108251
12716758 59 18341045298027719840
12897270 3 18412259553920529528
12932764 1 18408319995294978328
13024252 1 15430036569575705881
14325111 11 18410007698224887656
14993402 34 18186798080247881581
15775835 57 18040998397498315932
16945 1 18337377318816374985
20201158 50 17846221042446155734
20279233 1 17917710215027085586
20645476 183 17967250909796593878
20645477 56 18410292523503195872
20653085 51 18260554432646311008
20828058 34 18408601444190499156
20871998 184 18200032983416201999
23402539 116 18342446037092004845
23552423 10 18044369654699250016
23559900 14 18272647931914087736
2748010 2 17978495765795859043
369184 2 14045741534194831504
93112 12 18410859880261588716

> <PUBCHEM_SHAPE_MULTIPOLES>
213.23
5.69
1.59
0.78
5.74
0.41
0.07
-0.5
1.61
-1.11
-0.05
0.32
-0.03
0.06

> <PUBCHEM_SHAPE_SELFOVERLAP>
436.036

> <PUBCHEM_SHAPE_VOLUME>
123.7

> <PUBCHEM_COORDINATE_TYPE>
2
5
10

$$$$
