MODEL 1
REMARK VINA RESULT:      -5.0      0.000      0.000
REMARK  0 active torsions:
REMARK  status: ('A' for Active; 'I' for Inactive)
ROOT
ATOM      1  C1  UNK     1      26.266   5.643   3.675  1.00  0.00     0.000 A 
ATOM      2  C2  UNK     1      26.899   6.849   3.977  1.00  0.00     0.000 A 
ATOM      3  C3  UNK     1      25.591   4.940   4.674  1.00  0.00     0.000 A 
ATOM      4  C4  UNK     1      26.859   7.352   5.277  1.00  0.00     0.000 A 
ATOM      5  C5  UNK     1      25.552   5.443   5.974  1.00  0.00     0.000 A 
ATOM      6  C6  UNK     1      26.184   6.649   6.275  1.00  0.00     0.000 A 
ENDROOT
TORSDOF 0
ENDMDL
MODEL 2
REMARK VINA RESULT:      -5.0      0.016      2.421
REMARK  0 active torsions:
REMARK  status: ('A' for Active; 'I' for Inactive)
ROOT
ATOM      1  C1  UNK     1      25.557   5.457   5.975  1.00  0.00     0.000 A 
ATOM      2  C2  UNK     1      25.588   4.948   4.676  1.00  0.00     0.000 A 
ATOM      3  C3  UNK     1      26.202   6.659   6.269  1.00  0.00     0.000 A 
ATOM      4  C4  UNK     1      26.263   5.641   3.672  1.00  0.00     0.000 A 
ATOM      5  C5  UNK     1      26.878   7.351   5.265  1.00  0.00     0.000 A 
ATOM      6  C6  UNK     1      26.908   6.843   3.966  1.00  0.00     0.000 A 
ENDROOT
TORSDOF 0
ENDMDL
MODEL 3
REMARK VINA RESULT:      -5.0      0.034      1.374
REMARK  0 active torsions:
REMARK  status: ('A' for Active; 'I' for Inactive)
ROOT
ATOM      1  C1  UNK     1      26.907   6.804   3.961  1.00  0.00     0.000 A 
ATOM      2  C2  UNK     1      26.866   7.334   5.251  1.00  0.00     0.000 A 
ATOM      3  C3  UNK     1      26.266   5.596   3.682  1.00  0.00     0.000 A 
ATOM      4  C4  UNK     1      26.186   6.655   6.262  1.00  0.00     0.000 A 
ATOM      5  C5  UNK     1      25.587   4.917   4.694  1.00  0.00     0.000 A 
ATOM      6  C6  UNK     1      25.546   5.447   5.984  1.00  0.00     0.000 A 
ENDROOT
TORSDOF 0
ENDMDL
MODEL 4
REMARK VINA RESULT:      -3.8     14.062     15.395
REMARK  0 active torsions:
REMARK  status: ('A' for Active; 'I' for Inactive)
ROOT
ATOM      1  C1  UNK     1      31.705  14.285  16.942  1.00  0.00     0.000 A 
ATOM      2  C2  UNK     1      31.716  13.285  15.969  1.00  0.00     0.000 A 
ATOM      3  C3  UNK     1      32.770  15.181  17.035  1.00  0.00     0.000 A 
ATOM      4  C4  UNK     1      32.794  13.182  15.090  1.00  0.00     0.000 A 
ATOM      5  C5  UNK     1      33.848  15.076  16.156  1.00  0.00     0.000 A 
ATOM      6  C6  UNK     1      33.859  14.078  15.182  1.00  0.00     0.000 A 
ENDROOT
TORSDOF 0
ENDMDL
MODEL 5
REMARK VINA RESULT:      -3.7     13.685     14.849
REMARK  0 active torsions:
REMARK  status: ('A' for Active; 'I' for Inactive)
ROOT
ATOM      1  C1  UNK     1      33.481  13.732  15.094  1.00  0.00     0.000 A 
ATOM      2  C2  UNK     1      33.468  14.758  16.040  1.00  0.00     0.000 A 
ATOM      3  C3  UNK     1      32.450  12.793  15.070  1.00  0.00     0.000 A 
ATOM      4  C4  UNK     1      32.425  14.843  16.962  1.00  0.00     0.000 A 
ATOM      5  C5  UNK     1      31.408  12.877  15.993  1.00  0.00     0.000 A 
ATOM      6  C6  UNK     1      31.395  13.903  16.938  1.00  0.00     0.000 A 
ENDROOT
TORSDOF 0
ENDMDL
MODEL 6
REMARK VINA RESULT:      -3.6     20.660     21.301
REMARK  0 active torsions:
REMARK  status: ('A' for Active; 'I' for Inactive)
ROOT
ATOM      1  C1  UNK     1      42.960   3.869  16.793  1.00  0.00     0.000 A 
ATOM      2  C2  UNK     1      42.488   3.952  18.103  1.00  0.00     0.000 A 
ATOM      3  C3  UNK     1      43.724   4.906  16.259  1.00  0.00     0.000 A 
ATOM      4  C4  UNK     1      42.779   5.074  18.879  1.00  0.00     0.000 A 
ATOM      5  C5  UNK     1      44.015   6.028  17.035  1.00  0.00     0.000 A 
ATOM      6  C6  UNK     1      43.544   6.111  18.345  1.00  0.00     0.000 A 
ENDROOT
TORSDOF 0
ENDMDL
MODEL 7
REMARK VINA RESULT:      -3.6     20.651     21.301
REMARK  0 active torsions:
REMARK  status: ('A' for Active; 'I' for Inactive)
ROOT
ATOM      1  C1  UNK     1      44.028   5.985  17.009  1.00  0.00     0.000 A 
ATOM      2  C2  UNK     1      43.703   4.852  16.262  1.00  0.00     0.000 A 
ATOM      3  C3  UNK     1      43.573   6.109  18.322  1.00  0.00     0.000 A 
ATOM      4  C4  UNK     1      42.922   3.845  16.827  1.00  0.00     0.000 A 
ATOM      5  C5  UNK     1      42.791   5.101  18.887  1.00  0.00     0.000 A 
ATOM      6  C6  UNK     1      42.467   3.969  18.140  1.00  0.00     0.000 A 
ENDROOT
TORSDOF 0
ENDMDL
MODEL 8
REMARK VINA RESULT:      -3.6     13.147     14.420
REMARK  0 active torsions:
REMARK  status: ('A' for Active; 'I' for Inactive)
ROOT
ATOM      1  C1  UNK     1      30.816  13.413  16.796  1.00  0.00     0.000 A 
ATOM      2  C2  UNK     1      31.831  14.364  16.918  1.00  0.00     0.000 A 
ATOM      3  C3  UNK     1      30.874  12.459  15.780  1.00  0.00     0.000 A 
ATOM      4  C4  UNK     1      32.900  14.361  16.023  1.00  0.00     0.000 A 
ATOM      5  C5  UNK     1      31.943  12.457  14.885  1.00  0.00     0.000 A 
ATOM      6  C6  UNK     1      32.957  13.407  15.007  1.00  0.00     0.000 A 
ENDROOT
TORSDOF 0
ENDMDL
MODEL 9
REMARK VINA RESULT:      -3.5     16.742     16.997
REMARK  0 active torsions:
REMARK  status: ('A' for Active; 'I' for Inactive)
ROOT
ATOM      1  C1  UNK     1      36.958  10.345  -7.122  1.00  0.00     0.000 A 
ATOM      2  C2  UNK     1      37.980  10.173  -6.187  1.00  0.00     0.000 A 
ATOM      3  C3  UNK     1      36.644   9.316  -8.009  1.00  0.00     0.000 A 
ATOM      4  C4  UNK     1      38.688   8.972  -6.143  1.00  0.00     0.000 A 
ATOM      5  C5  UNK     1      37.353   8.115  -7.965  1.00  0.00     0.000 A 
ATOM      6  C6  UNK     1      38.375   7.943  -7.030  1.00  0.00     0.000 A 
ENDROOT
TORSDOF 0
ENDMDL
