REMARK  3 active torsions:
REMARK  status: ('A' for Active; 'I' for Inactive)
REMARK    1  A    between atoms: O1_2  and  C1_3 
REMARK    2  A    between atoms: O1_2  and  C4_6 
REMARK    3  A    between atoms: C4_6  and  C8_10 
ROOT
ATOM      1  F1  UNK     1     -23.644 -10.267  32.491  1.00  0.00    -0.203 F 
ATOM      2  C1  UNK     1     -24.241  -8.312  33.693  1.00  0.00     0.107 A 
ATOM      3  C2  UNK     1     -24.077  -8.999  32.491  1.00  0.00     0.149 A 
ATOM      4  C3  UNK     1     -24.692  -6.992  33.687  1.00  0.00     0.040 A 
ATOM      5  C5  UNK     1     -24.364  -8.366  31.281  1.00  0.00     0.045 A 
ATOM      6  C6  UNK     1     -24.979  -6.359  32.477  1.00  0.00     0.003 A 
ATOM      7  C7  UNK     1     -24.815  -7.046  31.275  1.00  0.00     0.003 A 
ENDROOT
BRANCH   2   8
ATOM      8  O1  UNK     1     -23.962  -8.929  34.874  1.00  0.00    -0.344 OA
BRANCH   8   9
ATOM      9  C4  UNK     1     -23.510  -8.104  35.947  1.00  0.00     0.202 C 
BRANCH   9  10
ATOM     10  C8  UNK     1     -22.652  -8.923  36.853  1.00  0.00    -0.011 C 
ATOM     11  C9  UNK     1     -21.372  -8.646  37.122  1.00  0.00     0.009 C 
ENDBRANCH   9  10
ENDBRANCH   8   9
ENDBRANCH   2   8
TORSDOF 3
