MODEL 1
REMARK VINA RESULT:      -6.9      0.000      0.000
REMARK  0 active torsions:
REMARK  status: ('A' for Active; 'I' for Inactive)
ROOT
ATOM      1  F1  UNK     1     -37.136  23.582 -13.020  1.00  0.00    -0.205 F 
ATOM      2  C1  UNK     1     -37.859  25.571 -11.921  1.00  0.00     0.013 A 
ATOM      3  C2  UNK     1     -38.635  26.754 -11.959  1.00  0.00    -0.023 A 
ATOM      4  C3  UNK     1     -37.865  24.710 -13.031  1.00  0.00     0.127 A 
ATOM      5  C4  UNK     1     -39.394  27.041 -13.106  1.00  0.00     0.012 A 
ATOM      6  C5  UNK     1     -37.100  25.285 -10.775  1.00  0.00     0.015 A 
ATOM      7  C6  UNK     1     -38.629  27.616 -10.850  1.00  0.00     0.012 A 
ATOM      8  C7  UNK     1     -38.624  25.011 -14.161  1.00  0.00     0.043 A 
ATOM      9  C8  UNK     1     -39.388  26.175 -14.198  1.00  0.00     0.004 A 
ATOM     10  C9  UNK     1     -37.106  26.151  -9.682  1.00  0.00     0.001 A 
ATOM     11  C10 UNK     1     -37.869  27.314  -9.719  1.00  0.00     0.001 A 
ENDROOT
TORSDOF 0
ENDMDL
MODEL 2
REMARK VINA RESULT:      -6.5      1.322      3.416
REMARK  0 active torsions:
REMARK  status: ('A' for Active; 'I' for Inactive)
ROOT
ATOM      1  F1  UNK     1     -36.554  24.963  -9.583  1.00  0.00    -0.205 F 
ATOM      2  C1  UNK     1     -37.683  25.454 -11.625  1.00  0.00     0.013 A 
ATOM      3  C2  UNK     1     -38.488  26.347 -12.371  1.00  0.00    -0.023 A 
ATOM      4  C3  UNK     1     -37.316  25.793 -10.313  1.00  0.00     0.127 A 
ATOM      5  C4  UNK     1     -38.902  27.554 -11.783  1.00  0.00     0.012 A 
ATOM      6  C5  UNK     1     -37.270  24.248 -12.213  1.00  0.00     0.015 A 
ATOM      7  C6  UNK     1     -38.856  26.008 -13.684  1.00  0.00     0.012 A 
ATOM      8  C7  UNK     1     -37.736  26.996  -9.745  1.00  0.00     0.043 A 
ATOM      9  C8  UNK     1     -38.528  27.875 -10.479  1.00  0.00     0.004 A 
ATOM     10  C9  UNK     1     -37.644  23.926 -13.518  1.00  0.00     0.001 A 
ATOM     11  C10 UNK     1     -38.435  24.804 -14.252  1.00  0.00     0.001 A 
ENDROOT
TORSDOF 0
ENDMDL
MODEL 3
REMARK VINA RESULT:      -5.7     13.648     15.514
REMARK  0 active torsions:
REMARK  status: ('A' for Active; 'I' for Inactive)
ROOT
ATOM      1  F1  UNK     1     -32.583  17.103   2.245  1.00  0.00    -0.205 F 
ATOM      2  C1  UNK     1     -33.912  17.799   0.392  1.00  0.00     0.013 A 
ATOM      3  C2  UNK     1     -34.735  17.441  -0.702  1.00  0.00    -0.023 A 
ATOM      4  C3  UNK     1     -33.367  16.789   1.202  1.00  0.00     0.127 A 
ATOM      5  C4  UNK     1     -34.988  16.082  -0.955  1.00  0.00     0.012 A 
ATOM      6  C5  UNK     1     -33.659  19.157   0.644  1.00  0.00     0.015 A 
ATOM      7  C6  UNK     1     -35.280  18.450  -1.512  1.00  0.00     0.012 A 
ATOM      8  C7  UNK     1     -33.628  15.445   0.936  1.00  0.00     0.043 A 
ATOM      9  C8  UNK     1     -34.438  15.092  -0.140  1.00  0.00     0.004 A 
ATOM     10  C9  UNK     1     -34.209  20.147  -0.170  1.00  0.00     0.001 A 
ATOM     11  C10 UNK     1     -35.019  19.795  -1.246  1.00  0.00     0.001 A 
ENDROOT
TORSDOF 0
ENDMDL
MODEL 4
REMARK VINA RESULT:      -5.7     13.496     15.372
REMARK  0 active torsions:
REMARK  status: ('A' for Active; 'I' for Inactive)
ROOT
ATOM      1  F1  UNK     1     -32.664  19.539   1.509  1.00  0.00    -0.205 F 
ATOM      2  C1  UNK     1     -33.823  17.803   0.355  1.00  0.00     0.013 A 
ATOM      3  C2  UNK     1     -34.731  17.434  -0.665  1.00  0.00    -0.023 A 
ATOM      4  C3  UNK     1     -33.522  19.162   0.548  1.00  0.00     0.127 A 
ATOM      5  C4  UNK     1     -35.314  18.434  -1.462  1.00  0.00     0.012 A 
ATOM      6  C5  UNK     1     -33.241  16.804   1.151  1.00  0.00     0.015 A 
ATOM      7  C6  UNK     1     -35.032  16.075  -0.858  1.00  0.00     0.012 A 
ATOM      8  C7  UNK     1     -34.110  20.141  -0.253  1.00  0.00     0.043 A 
ATOM      9  C8  UNK     1     -35.004  19.777  -1.256  1.00  0.00     0.004 A 
ATOM     10  C9  UNK     1     -33.551  15.459   0.946  1.00  0.00     0.001 A 
ATOM     11  C10 UNK     1     -34.444  15.096  -0.057  1.00  0.00     0.001 A 
ENDROOT
TORSDOF 0
ENDMDL
MODEL 5
REMARK VINA RESULT:      -5.6     16.146     16.473
REMARK  0 active torsions:
REMARK  status: ('A' for Active; 'I' for Inactive)
ROOT
ATOM      1  F1  UNK     1     -38.668  16.077 -25.284  1.00  0.00    -0.205 F 
ATOM      2  C1  UNK     1     -40.584  15.284 -24.105  1.00  0.00     0.013 A 
ATOM      3  C2  UNK     1     -41.992  15.260 -23.974  1.00  0.00    -0.023 A 
ATOM      4  C3  UNK     1     -40.003  16.037 -25.139  1.00  0.00     0.127 A 
ATOM      5  C4  UNK     1     -42.779  15.991 -24.881  1.00  0.00     0.012 A 
ATOM      6  C5  UNK     1     -39.798  14.554 -23.200  1.00  0.00     0.015 A 
ATOM      7  C6  UNK     1     -42.574  14.507 -22.941  1.00  0.00     0.012 A 
ATOM      8  C7  UNK     1     -40.799  16.756 -26.029  1.00  0.00     0.043 A 
ATOM      9  C8  UNK     1     -42.185  16.733 -25.901  1.00  0.00     0.004 A 
ATOM     10  C9  UNK     1     -40.392  13.811 -22.179  1.00  0.00     0.001 A 
ATOM     11  C10 UNK     1     -41.777  13.787 -22.050  1.00  0.00     0.001 A 
ENDROOT
TORSDOF 0
ENDMDL
MODEL 6
REMARK VINA RESULT:      -5.5     21.142     21.560
REMARK  0 active torsions:
REMARK  status: ('A' for Active; 'I' for Inactive)
ROOT
ATOM      1  F1  UNK     1     -49.703  13.559   0.317  1.00  0.00    -0.205 F 
ATOM      2  C1  UNK     1     -48.182  13.647   2.152  1.00  0.00     0.013 A 
ATOM      3  C2  UNK     1     -47.151  13.022   2.892  1.00  0.00    -0.023 A 
ATOM      4  C3  UNK     1     -48.723  12.988   1.036  1.00  0.00     0.127 A 
ATOM      5  C4  UNK     1     -46.690  11.756   2.494  1.00  0.00     0.012 A 
ATOM      6  C5  UNK     1     -48.643  14.912   2.550  1.00  0.00     0.015 A 
ATOM      7  C6  UNK     1     -46.610  13.681   4.009  1.00  0.00     0.012 A 
ATOM      8  C7  UNK     1     -48.253  11.731   0.655  1.00  0.00     0.043 A 
ATOM      9  C8  UNK     1     -47.238  11.117   1.383  1.00  0.00     0.004 A 
ATOM     10  C9  UNK     1     -48.095  15.552   3.662  1.00  0.00     0.001 A 
ATOM     11  C10 UNK     1     -47.080  14.938   4.390  1.00  0.00     0.001 A 
ENDROOT
TORSDOF 0
ENDMDL
MODEL 7
REMARK VINA RESULT:      -5.4     16.751     17.583
REMARK  0 active torsions:
REMARK  status: ('A' for Active; 'I' for Inactive)
ROOT
ATOM      1  F1  UNK     1     -34.198  10.055  -3.275  1.00  0.00    -0.205 F 
ATOM      2  C1  UNK     1     -33.066  10.760  -5.252  1.00  0.00     0.013 A 
ATOM      3  C2  UNK     1     -32.082  11.585  -5.848  1.00  0.00    -0.023 A 
ATOM      4  C3  UNK     1     -33.270  10.827  -3.864  1.00  0.00     0.127 A 
ATOM      5  C4  UNK     1     -31.332  12.454  -5.037  1.00  0.00     0.012 A 
ATOM      6  C5  UNK     1     -33.815   9.892  -6.062  1.00  0.00     0.015 A 
ATOM      7  C6  UNK     1     -31.877  11.519  -7.236  1.00  0.00     0.012 A 
ATOM      8  C7  UNK     1     -32.516  11.695  -3.075  1.00  0.00     0.043 A 
ATOM      9  C8  UNK     1     -31.549  12.507  -3.661  1.00  0.00     0.004 A 
ATOM     10  C9  UNK     1     -33.599   9.838  -7.440  1.00  0.00     0.001 A 
ATOM     11  C10 UNK     1     -32.632  10.649  -8.025  1.00  0.00     0.001 A 
ENDROOT
TORSDOF 0
ENDMDL
MODEL 8
REMARK VINA RESULT:      -5.4     21.185     21.759
REMARK  0 active torsions:
REMARK  status: ('A' for Active; 'I' for Inactive)
ROOT
ATOM      1  F1  UNK     1     -49.523  15.889   2.329  1.00  0.00    -0.205 F 
ATOM      2  C1  UNK     1     -48.162  13.934   2.431  1.00  0.00     0.013 A 
ATOM      3  C2  UNK     1     -47.087  13.246   3.041  1.00  0.00    -0.023 A 
ATOM      4  C3  UNK     1     -48.508  15.215   2.892  1.00  0.00     0.127 A 
ATOM      5  C4  UNK     1     -46.388  13.859   4.095  1.00  0.00     0.012 A 
ATOM      6  C5  UNK     1     -48.860  13.321   1.378  1.00  0.00     0.015 A 
ATOM      7  C6  UNK     1     -46.741  11.964   2.580  1.00  0.00     0.012 A 
ATOM      8  C7  UNK     1     -47.803  15.808   3.939  1.00  0.00     0.043 A 
ATOM      9  C8  UNK     1     -46.745  15.131   4.540  1.00  0.00     0.004 A 
ATOM     10  C9  UNK     1     -48.503  12.048   0.932  1.00  0.00     0.001 A 
ATOM     11  C10 UNK     1     -47.446  11.371   1.533  1.00  0.00     0.001 A 
ENDROOT
TORSDOF 0
ENDMDL
MODEL 9
REMARK VINA RESULT:      -5.4     12.677     14.491
REMARK  0 active torsions:
REMARK  status: ('A' for Active; 'I' for Inactive)
ROOT
ATOM      1  F1  UNK     1     -31.280  18.709  -2.273  1.00  0.00    -0.205 F 
ATOM      2  C1  UNK     1     -33.173  17.510  -1.456  1.00  0.00     0.013 A 
ATOM      3  C2  UNK     1     -34.556  17.503  -1.157  1.00  0.00    -0.023 A 
ATOM      4  C3  UNK     1     -32.590  18.675  -1.981  1.00  0.00     0.127 A 
ATOM      5  C4  UNK     1     -35.316  18.661  -1.392  1.00  0.00     0.012 A 
ATOM      6  C5  UNK     1     -32.414  16.353  -1.221  1.00  0.00     0.015 A 
ATOM      7  C6  UNK     1     -35.140  16.338  -0.631  1.00  0.00     0.012 A 
ATOM      8  C7  UNK     1     -33.360  19.816  -2.208  1.00  0.00     0.043 A 
ATOM      9  C8  UNK     1     -34.721  19.809  -1.914  1.00  0.00     0.004 A 
ATOM     10  C9  UNK     1     -33.010  15.205  -0.699  1.00  0.00     0.001 A 
ATOM     11  C10 UNK     1     -34.370  15.197  -0.405  1.00  0.00     0.001 A 
ENDROOT
TORSDOF 0
ENDMDL
