REMARK  0 active torsions:
REMARK  status: ('A' for Active; 'I' for Inactive)
ROOT
ATOM      1  F1  UNK     1     -31.383  -4.071  25.853  1.00  0.00    -0.205 F 
ATOM      2  C1  UNK     1     -31.695  -2.550  27.663  1.00  0.00     0.013 A 
ATOM      3  C2  UNK     1     -31.958  -1.228  28.093  1.00  0.00    -0.023 A 
ATOM      4  C3  UNK     1     -31.632  -2.825  26.287  1.00  0.00     0.127 A 
ATOM      5  C4  UNK     1     -32.150  -0.219  27.134  1.00  0.00     0.012 A 
ATOM      6  C5  UNK     1     -31.503  -3.558  28.621  1.00  0.00     0.015 A 
ATOM      7  C6  UNK     1     -32.021  -0.952  29.469  1.00  0.00     0.012 A 
ATOM      8  C7  UNK     1     -31.825  -1.811  25.349  1.00  0.00     0.043 A 
ATOM      9  C8  UNK     1     -32.084  -0.510  25.772  1.00  0.00     0.004 A 
ATOM     10  C9  UNK     1     -31.569  -3.267  29.984  1.00  0.00     0.001 A 
ATOM     11  C10 UNK     1     -31.828  -1.967  30.407  1.00  0.00     0.001 A 
ENDROOT
TORSDOF 0
