REMARK  4 active torsions:
REMARK  status: ('A' for Active; 'I' for Inactive)
REMARK    1  A    between atoms: S1_1  and  C3_7 
REMARK    2  A    between atoms: S1_1  and  C9_13 
REMARK    3  A    between atoms: C1_5  and  C2_6 
REMARK    4  A    between atoms: C1_5  and  C3_7 
ROOT
ATOM      1  C3  UNK     1     -57.291  40.935  -3.361  1.00  0.00     0.085 C 
ENDROOT
BRANCH   1   2
ATOM      2  S1  UNK     1     -56.517  42.571  -3.550  1.00  0.00    -0.107 SA
BRANCH   2   3
ATOM      3  C9  UNK     1     -57.954  43.636  -3.581  1.00  0.00     0.134 A 
ATOM      4  N1  UNK     1     -59.206  43.182  -3.480  1.00  0.00    -0.149 NA
ATOM      5  N2  UNK     1     -59.899  44.330  -3.554  1.00  0.00    -0.196 N 
ATOM      6  N3  UNK     1     -59.221  45.480  -3.693  1.00  0.00    -0.167 NA
ATOM      7  H11 UNK     1     -60.912  44.327  -3.506  1.00  0.00     0.213 HD
ATOM      8  C10 UNK     1     -57.963  45.032  -3.710  1.00  0.00     0.180 A 
ENDBRANCH   2   3
ENDBRANCH   1   2
BRANCH   1   9
ATOM      9  C1  UNK     1     -56.256  39.798  -3.304  1.00  0.00     0.049 C 
BRANCH   9  10
ATOM     10  C2  UNK     1     -56.831  38.429  -3.165  1.00  0.00    -0.057 A 
ATOM     11  C4  UNK     1     -57.053  37.891  -1.898  1.00  0.00     0.007 A 
ATOM     12  C6  UNK     1     -57.589  36.610  -1.768  1.00  0.00     0.001 A 
ATOM     13  C8  UNK     1     -57.904  35.867  -2.906  1.00  0.00     0.000 A 
ATOM     14  C7  UNK     1     -57.682  36.405  -4.174  1.00  0.00     0.001 A 
ATOM     15  C5  UNK     1     -57.145  37.686  -4.303  1.00  0.00     0.007 A 
ENDBRANCH   9  10
ENDBRANCH   1   9
TORSDOF 4
