MODEL 1
REMARK VINA RESULT:      -6.4      0.000      0.000
REMARK  3 active torsions:
REMARK  status: ('A' for Active; 'I' for Inactive)
REMARK    1  A    between atoms: O1_2  and  C1_3 
REMARK    2  A    between atoms: O1_2  and  C4_6 
REMARK    3  A    between atoms: C4_6  and  C8_10 
ROOT
ATOM      1  F1  UNK     1      40.946 -21.053  13.270  1.00  0.00    -0.203 F 
ATOM      2  C1  UNK     1      39.322 -19.653  12.255  1.00  0.00     0.107 A 
ATOM      3  C2  UNK     1      39.849 -20.289  13.379  1.00  0.00     0.149 A 
ATOM      4  C3  UNK     1      38.181 -18.860  12.375  1.00  0.00     0.040 A 
ATOM      5  C5  UNK     1      39.237 -20.133  14.622  1.00  0.00     0.045 A 
ATOM      6  C6  UNK     1      37.567 -18.702  13.618  1.00  0.00     0.003 A 
ATOM      7  C7  UNK     1      38.095 -19.339  14.742  1.00  0.00     0.003 A 
ENDROOT
BRANCH   2   8
ATOM      8  O1  UNK     1      39.920 -19.804  11.043  1.00  0.00    -0.344 OA
BRANCH   8   9
ATOM      9  C4  UNK     1      40.501 -18.641  10.455  1.00  0.00     0.202 C 
BRANCH   9  10
ATOM     10  C8  UNK     1      41.933 -18.926  10.145  1.00  0.00    -0.011 C 
ATOM     11  C9  UNK     1      42.850 -19.234  11.067  1.00  0.00     0.009 C 
ENDBRANCH   9  10
ENDBRANCH   8   9
ENDBRANCH   2   8
TORSDOF 3
ENDMDL
MODEL 2
REMARK VINA RESULT:      -6.4      1.112      4.087
REMARK  3 active torsions:
REMARK  status: ('A' for Active; 'I' for Inactive)
REMARK    1  A    between atoms: O1_2  and  C1_3 
REMARK    2  A    between atoms: O1_2  and  C4_6 
REMARK    3  A    between atoms: C4_6  and  C8_10 
ROOT
ATOM      1  F1  UNK     1      42.055 -20.621  13.572  1.00  0.00    -0.203 F 
ATOM      2  C1  UNK     1      40.469 -19.794  12.014  1.00  0.00     0.107 A 
ATOM      3  C2  UNK     1      41.790 -20.002  12.413  1.00  0.00     0.149 A 
ATOM      4  C3  UNK     1      40.200 -19.149  10.807  1.00  0.00     0.040 A 
ATOM      5  C5  UNK     1      42.840 -19.567  11.606  1.00  0.00     0.045 A 
ATOM      6  C6  UNK     1      41.250 -18.714   9.999  1.00  0.00     0.003 A 
ATOM      7  C7  UNK     1      42.570 -18.922  10.398  1.00  0.00     0.003 A 
ENDROOT
BRANCH   2   8
ATOM      8  O1  UNK     1      39.444 -20.219  12.801  1.00  0.00    -0.344 OA
BRANCH   8   9
ATOM      9  C4  UNK     1      38.281 -19.393  12.856  1.00  0.00     0.202 C 
BRANCH   9  10
ATOM     10  C8  UNK     1      38.199 -18.770  14.209  1.00  0.00    -0.011 C 
ATOM     11  C9  UNK     1      38.617 -19.365  15.332  1.00  0.00     0.009 C 
ENDBRANCH   9  10
ENDBRANCH   8   9
ENDBRANCH   2   8
TORSDOF 3
ENDMDL
MODEL 3
REMARK VINA RESULT:      -6.1      1.760      2.134
REMARK  3 active torsions:
REMARK  status: ('A' for Active; 'I' for Inactive)
REMARK    1  A    between atoms: O1_2  and  C1_3 
REMARK    2  A    between atoms: O1_2  and  C4_6 
REMARK    3  A    between atoms: C4_6  and  C8_10 
ROOT
ATOM      1  F1  UNK     1      38.709 -16.513  12.691  1.00  0.00    -0.203 F 
ATOM      2  C1  UNK     1      39.327 -18.709  12.039  1.00  0.00     0.107 A 
ATOM      3  C2  UNK     1      38.782 -17.823  12.969  1.00  0.00     0.149 A 
ATOM      4  C3  UNK     1      39.400 -20.070  12.335  1.00  0.00     0.040 A 
ATOM      5  C5  UNK     1      38.309 -18.297  14.192  1.00  0.00     0.045 A 
ATOM      6  C6  UNK     1      38.928 -20.546  13.558  1.00  0.00     0.003 A 
ATOM      7  C7  UNK     1      38.383 -19.659  14.487  1.00  0.00     0.003 A 
ENDROOT
BRANCH   2   8
ATOM      8  O1  UNK     1      39.787 -18.247  10.846  1.00  0.00    -0.344 OA
BRANCH   8   9
ATOM      9  C4  UNK     1      40.636 -19.116  10.096  1.00  0.00     0.202 C 
BRANCH   9  10
ATOM     10  C8  UNK     1      42.053 -18.699  10.305  1.00  0.00    -0.011 C 
ATOM     11  C9  UNK     1      42.898 -19.315  11.139  1.00  0.00     0.009 C 
ENDBRANCH   9  10
ENDBRANCH   8   9
ENDBRANCH   2   8
TORSDOF 3
ENDMDL
MODEL 4
REMARK VINA RESULT:      -5.9      1.682      4.466
REMARK  3 active torsions:
REMARK  status: ('A' for Active; 'I' for Inactive)
REMARK    1  A    between atoms: O1_2  and  C1_3 
REMARK    2  A    between atoms: O1_2  and  C4_6 
REMARK    3  A    between atoms: C4_6  and  C8_10 
ROOT
ATOM      1  F1  UNK     1      39.660 -18.105  10.225  1.00  0.00    -0.203 F 
ATOM      2  C1  UNK     1      40.236 -19.520  12.040  1.00  0.00     0.107 A 
ATOM      3  C2  UNK     1      40.596 -18.758  10.928  1.00  0.00     0.149 A 
ATOM      4  C3  UNK     1      41.215 -20.197  12.767  1.00  0.00     0.040 A 
ATOM      5  C5  UNK     1      41.933 -18.674  10.542  1.00  0.00     0.045 A 
ATOM      6  C6  UNK     1      42.553 -20.113  12.382  1.00  0.00     0.003 A 
ATOM      7  C7  UNK     1      42.912 -19.352  11.270  1.00  0.00     0.003 A 
ENDROOT
BRANCH   2   8
ATOM      8  O1  UNK     1      38.931 -19.602  12.417  1.00  0.00    -0.344 OA
BRANCH   8   9
ATOM      9  C4  UNK     1      38.446 -18.594  13.303  1.00  0.00     0.202 C 
BRANCH   9  10
ATOM     10  C8  UNK     1      38.042 -19.239  14.587  1.00  0.00    -0.011 C 
ATOM     11  C9  UNK     1      38.712 -19.101  15.736  1.00  0.00     0.009 C 
ENDBRANCH   9  10
ENDBRANCH   8   9
ENDBRANCH   2   8
TORSDOF 3
ENDMDL
MODEL 5
REMARK VINA RESULT:      -4.9      8.557      9.706
REMARK  3 active torsions:
REMARK  status: ('A' for Active; 'I' for Inactive)
REMARK    1  A    between atoms: O1_2  and  C1_3 
REMARK    2  A    between atoms: O1_2  and  C4_6 
REMARK    3  A    between atoms: C4_6  and  C8_10 
ROOT
ATOM      1  F1  UNK     1      32.337 -18.525  15.342  1.00  0.00    -0.203 F 
ATOM      2  C1  UNK     1      32.595 -16.573  16.665  1.00  0.00     0.107 A 
ATOM      3  C2  UNK     1      32.796 -17.938  16.456  1.00  0.00     0.149 A 
ATOM      4  C3  UNK     1      33.075 -15.969  17.827  1.00  0.00     0.040 A 
ATOM      5  C5  UNK     1      33.475 -18.698  17.408  1.00  0.00     0.045 A 
ATOM      6  C6  UNK     1      33.755 -16.728  18.779  1.00  0.00     0.003 A 
ATOM      7  C7  UNK     1      33.955 -18.092  18.570  1.00  0.00     0.003 A 
ENDROOT
BRANCH   2   8
ATOM      8  O1  UNK     1      31.934 -15.831  15.737  1.00  0.00    -0.344 OA
BRANCH   8   9
ATOM      9  C4  UNK     1      30.782 -15.114  16.179  1.00  0.00     0.202 C 
BRANCH   9  10
ATOM     10  C8  UNK     1      29.619 -15.504  15.329  1.00  0.00    -0.011 C 
ATOM     11  C9  UNK     1      29.574 -16.617  14.589  1.00  0.00     0.009 C 
ENDBRANCH   9  10
ENDBRANCH   8   9
ENDBRANCH   2   8
TORSDOF 3
ENDMDL
MODEL 6
REMARK VINA RESULT:      -4.7     13.489     14.511
REMARK  3 active torsions:
REMARK  status: ('A' for Active; 'I' for Inactive)
REMARK    1  A    between atoms: O1_2  and  C1_3 
REMARK    2  A    between atoms: O1_2  and  C4_6 
REMARK    3  A    between atoms: C4_6  and  C8_10 
ROOT
ATOM      1  F1  UNK     1      32.811 -19.350  -1.450  1.00  0.00    -0.203 F 
ATOM      2  C1  UNK     1      32.569 -20.882   0.344  1.00  0.00     0.107 A 
ATOM      3  C2  UNK     1      32.058 -20.235  -0.781  1.00  0.00     0.149 A 
ATOM      4  C3  UNK     1      31.781 -21.802   1.036  1.00  0.00     0.040 A 
ATOM      5  C5  UNK     1      30.762 -20.507  -1.216  1.00  0.00     0.045 A 
ATOM      6  C6  UNK     1      30.484 -22.076   0.602  1.00  0.00     0.003 A 
ATOM      7  C7  UNK     1      29.974 -21.428  -0.524  1.00  0.00     0.003 A 
ENDROOT
BRANCH   2   8
ATOM      8  O1  UNK     1      33.834 -20.617   0.769  1.00  0.00    -0.344 OA
BRANCH   8   9
ATOM      9  C4  UNK     1      33.971 -19.886   1.986  1.00  0.00     0.202 C 
BRANCH   9  10
ATOM     10  C8  UNK     1      35.011 -18.831   1.797  1.00  0.00    -0.011 C 
ATOM     11  C9  UNK     1      35.207 -18.172   0.650  1.00  0.00     0.009 C 
ENDBRANCH   9  10
ENDBRANCH   8   9
ENDBRANCH   2   8
TORSDOF 3
ENDMDL
MODEL 7
REMARK VINA RESULT:      -4.7     21.140     21.888
REMARK  3 active torsions:
REMARK  status: ('A' for Active; 'I' for Inactive)
REMARK    1  A    between atoms: O1_2  and  C1_3 
REMARK    2  A    between atoms: O1_2  and  C4_6 
REMARK    3  A    between atoms: C4_6  and  C8_10 
ROOT
ATOM      1  F1  UNK     1      34.311 -33.082  -3.794  1.00  0.00    -0.203 F 
ATOM      2  C1  UNK     1      36.226 -34.321  -3.142  1.00  0.00     0.107 A 
ATOM      3  C2  UNK     1      35.645 -33.204  -3.743  1.00  0.00     0.149 A 
ATOM      4  C3  UNK     1      37.615 -34.442  -3.093  1.00  0.00     0.040 A 
ATOM      5  C5  UNK     1      36.451 -32.209  -4.295  1.00  0.00     0.045 A 
ATOM      6  C6  UNK     1      38.422 -33.447  -3.644  1.00  0.00     0.003 A 
ATOM      7  C7  UNK     1      37.841 -32.331  -4.245  1.00  0.00     0.003 A 
ENDROOT
BRANCH   2   8
ATOM      8  O1  UNK     1      35.440 -35.292  -2.603  1.00  0.00    -0.344 OA
BRANCH   8   9
ATOM      9  C4  UNK     1      35.446 -35.418  -1.182  1.00  0.00     0.202 C 
BRANCH   9  10
ATOM     10  C8  UNK     1      34.185 -34.828  -0.643  1.00  0.00    -0.011 C 
ATOM     11  C9  UNK     1      33.012 -34.858  -1.285  1.00  0.00     0.009 C 
ENDBRANCH   9  10
ENDBRANCH   8   9
ENDBRANCH   2   8
TORSDOF 3
ENDMDL
MODEL 8
REMARK VINA RESULT:      -4.6     12.257     13.250
REMARK  3 active torsions:
REMARK  status: ('A' for Active; 'I' for Inactive)
REMARK    1  A    between atoms: O1_2  and  C1_3 
REMARK    2  A    between atoms: O1_2  and  C4_6 
REMARK    3  A    between atoms: C4_6  and  C8_10 
ROOT
ATOM      1  F1  UNK     1      32.058 -17.993   2.106  1.00  0.00    -0.203 F 
ATOM      2  C1  UNK     1      32.948 -20.131   1.596  1.00  0.00     0.107 A 
ATOM      3  C2  UNK     1      31.864 -19.262   1.720  1.00  0.00     0.149 A 
ATOM      4  C3  UNK     1      32.739 -21.451   1.194  1.00  0.00     0.040 A 
ATOM      5  C5  UNK     1      30.573 -19.711   1.443  1.00  0.00     0.045 A 
ATOM      6  C6  UNK     1      31.449 -21.901   0.916  1.00  0.00     0.003 A 
ATOM      7  C7  UNK     1      30.365 -21.031   1.041  1.00  0.00     0.003 A 
ENDROOT
BRANCH   2   8
ATOM      8  O1  UNK     1      34.207 -19.695   1.865  1.00  0.00    -0.344 OA
BRANCH   8   9
ATOM      9  C4  UNK     1      34.925 -19.081   0.796  1.00  0.00     0.202 C 
BRANCH   9  10
ATOM     10  C8  UNK     1      35.617 -17.866   1.317  1.00  0.00    -0.011 C 
ATOM     11  C9  UNK     1      35.369 -17.320   2.512  1.00  0.00     0.009 C 
ENDBRANCH   9  10
ENDBRANCH   8   9
ENDBRANCH   2   8
TORSDOF 3
ENDMDL
MODEL 9
REMARK VINA RESULT:      -4.5     21.078     21.836
REMARK  3 active torsions:
REMARK  status: ('A' for Active; 'I' for Inactive)
REMARK    1  A    between atoms: O1_2  and  C1_3 
REMARK    2  A    between atoms: O1_2  and  C4_6 
REMARK    3  A    between atoms: C4_6  and  C8_10 
ROOT
ATOM      1  F1  UNK     1      37.411 -35.711  -2.415  1.00  0.00    -0.203 F 
ATOM      2  C1  UNK     1      35.722 -34.283  -3.271  1.00  0.00     0.107 A 
ATOM      3  C2  UNK     1      37.066 -34.581  -3.048  1.00  0.00     0.149 A 
ATOM      4  C3  UNK     1      35.370 -33.105  -3.930  1.00  0.00     0.040 A 
ATOM      5  C5  UNK     1      38.058 -33.702  -3.482  1.00  0.00     0.045 A 
ATOM      6  C6  UNK     1      36.361 -32.225  -4.366  1.00  0.00     0.003 A 
ATOM      7  C7  UNK     1      37.705 -32.523  -4.141  1.00  0.00     0.003 A 
ENDROOT
BRANCH   2   8
ATOM      8  O1  UNK     1      34.754 -35.140  -2.849  1.00  0.00    -0.344 OA
BRANCH   8   9
ATOM      9  C4  UNK     1      33.817 -34.643  -1.894  1.00  0.00     0.202 C 
BRANCH   9  10
ATOM     10  C8  UNK     1      34.407 -34.774  -0.530  1.00  0.00    -0.011 C 
ATOM     11  C9  UNK     1      34.969 -35.894  -0.063  1.00  0.00     0.009 C 
ENDBRANCH   9  10
ENDBRANCH   8   9
ENDBRANCH   2   8
TORSDOF 3
ENDMDL
