REMARK  0 active torsions:
REMARK  status: ('A' for Active; 'I' for Inactive)
ROOT
ATOM      1  F1  UNK     1      -7.145  10.121   5.407  1.00  0.00    -0.205 F 
ATOM      2  C1  UNK     1      -8.380   8.756   3.892  1.00  0.00     0.013 A 
ATOM      3  C2  UNK     1      -9.328   8.673   2.845  1.00  0.00    -0.023 A 
ATOM      4  C3  UNK     1      -8.041  10.015   4.414  1.00  0.00     0.127 A 
ATOM      5  C4  UNK     1      -9.909   9.852   2.350  1.00  0.00     0.012 A 
ATOM      6  C5  UNK     1      -7.799   7.577   4.387  1.00  0.00     0.015 A 
ATOM      7  C6  UNK     1      -9.668   7.414   2.323  1.00  0.00     0.012 A 
ATOM      8  C7  UNK     1      -8.628  11.176   3.910  1.00  0.00     0.043 A 
ATOM      9  C8  UNK     1      -9.561  11.094   2.880  1.00  0.00     0.004 A 
ATOM     10  C9  UNK     1      -8.148   6.334   3.857  1.00  0.00     0.001 A 
ATOM     11  C10 UNK     1      -9.080   6.253   2.828  1.00  0.00     0.001 A 
ENDROOT
TORSDOF 0
