MODEL 1
REMARK VINA RESULT:      -7.9      0.000      0.000
REMARK  0 active torsions:
REMARK  status: ('A' for Active; 'I' for Inactive)
ROOT
ATOM      1  F1  UNK     1      42.970 -20.521  13.041  1.00  0.00    -0.205 F 
ATOM      2  C1  UNK     1      40.841 -19.813  12.235  1.00  0.00     0.013 A 
ATOM      3  C2  UNK     1      40.090 -19.167  11.224  1.00  0.00    -0.023 A 
ATOM      4  C3  UNK     1      42.235 -19.913  12.097  1.00  0.00     0.127 A 
ATOM      5  C4  UNK     1      40.755 -18.642  10.105  1.00  0.00     0.012 A 
ATOM      6  C5  UNK     1      40.175 -20.338  13.355  1.00  0.00     0.015 A 
ATOM      7  C6  UNK     1      38.696 -19.065  11.362  1.00  0.00     0.012 A 
ATOM      8  C7  UNK     1      42.879 -19.386  10.978  1.00  0.00     0.043 A 
ATOM      9  C8  UNK     1      42.140 -18.751   9.984  1.00  0.00     0.004 A 
ATOM     10  C9  UNK     1      38.789 -20.228  13.476  1.00  0.00     0.001 A 
ATOM     11  C10 UNK     1      38.052 -19.593  12.483  1.00  0.00     0.001 A 
ENDROOT
TORSDOF 0
ENDMDL
MODEL 2
REMARK VINA RESULT:      -7.7      0.677      3.344
REMARK  0 active torsions:
REMARK  status: ('A' for Active; 'I' for Inactive)
ROOT
ATOM      1  F1  UNK     1      41.288 -21.011  14.189  1.00  0.00    -0.205 F 
ATOM      2  C1  UNK     1      41.011 -19.815  12.145  1.00  0.00     0.013 A 
ATOM      3  C2  UNK     1      40.136 -19.199  11.220  1.00  0.00    -0.023 A 
ATOM      4  C3  UNK     1      40.480 -20.420  13.296  1.00  0.00     0.127 A 
ATOM      5  C4  UNK     1      38.754 -19.205  11.473  1.00  0.00     0.012 A 
ATOM      6  C5  UNK     1      42.393 -19.808  11.892  1.00  0.00     0.015 A 
ATOM      7  C6  UNK     1      40.667 -18.593  10.069  1.00  0.00     0.012 A 
ATOM      8  C7  UNK     1      39.104 -20.417  13.531  1.00  0.00     0.043 A 
ATOM      9  C8  UNK     1      38.243 -19.811  12.620  1.00  0.00     0.004 A 
ATOM     10  C9  UNK     1      42.904 -19.202  10.744  1.00  0.00     0.001 A 
ATOM     11  C10 UNK     1      42.043 -18.597   9.834  1.00  0.00     0.001 A 
ENDROOT
TORSDOF 0
ENDMDL
MODEL 3
REMARK VINA RESULT:      -7.7      1.516      2.484
REMARK  0 active torsions:
REMARK  status: ('A' for Active; 'I' for Inactive)
ROOT
ATOM      1  F1  UNK     1      40.992 -18.212   9.464  1.00  0.00    -0.205 F 
ATOM      2  C1  UNK     1      40.407 -19.294  11.506  1.00  0.00     0.013 A 
ATOM      3  C2  UNK     1      40.826 -20.013  12.650  1.00  0.00    -0.023 A 
ATOM      4  C3  UNK     1      41.363 -18.894  10.558  1.00  0.00     0.127 A 
ATOM      5  C4  UNK     1      42.189 -20.310  12.814  1.00  0.00     0.012 A 
ATOM      6  C5  UNK     1      39.044 -18.997  11.342  1.00  0.00     0.015 A 
ATOM      7  C6  UNK     1      39.870 -20.414  13.599  1.00  0.00     0.012 A 
ATOM      8  C7  UNK     1      42.713 -19.198  10.737  1.00  0.00     0.043 A 
ATOM      9  C8  UNK     1      43.125 -19.905  11.863  1.00  0.00     0.004 A 
ATOM     10  C9  UNK     1      38.107 -19.403  12.294  1.00  0.00     0.001 A 
ATOM     11  C10 UNK     1      38.520 -20.110  13.419  1.00  0.00     0.001 A 
ENDROOT
TORSDOF 0
ENDMDL
MODEL 4
REMARK VINA RESULT:      -7.0      1.795      2.979
REMARK  0 active torsions:
REMARK  status: ('A' for Active; 'I' for Inactive)
ROOT
ATOM      1  F1  UNK     1      38.502 -18.949  11.121  1.00  0.00    -0.205 F 
ATOM      2  C1  UNK     1      40.623 -19.664  11.944  1.00  0.00     0.013 A 
ATOM      3  C2  UNK     1      42.025 -19.720  11.768  1.00  0.00    -0.023 A 
ATOM      4  C3  UNK     1      39.835 -19.017  10.978  1.00  0.00     0.127 A 
ATOM      5  C4  UNK     1      42.599 -19.127  10.632  1.00  0.00     0.012 A 
ATOM      6  C5  UNK     1      40.049 -20.257  13.080  1.00  0.00     0.015 A 
ATOM      7  C6  UNK     1      42.814 -20.368  12.733  1.00  0.00     0.012 A 
ATOM      8  C7  UNK     1      40.422 -18.433   9.855  1.00  0.00     0.043 A 
ATOM      9  C8  UNK     1      41.802 -18.489   9.682  1.00  0.00     0.004 A 
ATOM     10  C9  UNK     1      40.847 -20.896  14.030  1.00  0.00     0.001 A 
ATOM     11  C10 UNK     1      42.226 -20.952  13.857  1.00  0.00     0.001 A 
ENDROOT
TORSDOF 0
ENDMDL
MODEL 5
REMARK VINA RESULT:      -5.7     13.923     15.288
REMARK  0 active torsions:
REMARK  status: ('A' for Active; 'I' for Inactive)
ROOT
ATOM      1  F1  UNK     1      31.001 -19.300  -2.305  1.00  0.00    -0.205 F 
ATOM      2  C1  UNK     1      32.178 -20.202  -0.438  1.00  0.00     0.013 A 
ATOM      3  C2  UNK     1      32.214 -21.133   0.626  1.00  0.00    -0.023 A 
ATOM      4  C3  UNK     1      31.060 -20.173  -1.288  1.00  0.00     0.127 A 
ATOM      5  C4  UNK     1      31.131 -22.009   0.810  1.00  0.00     0.012 A 
ATOM      6  C5  UNK     1      33.260 -19.327  -0.622  1.00  0.00     0.015 A 
ATOM      7  C6  UNK     1      33.331 -21.162   1.477  1.00  0.00     0.012 A 
ATOM      8  C7  UNK     1      29.993 -21.050  -1.091  1.00  0.00     0.043 A 
ATOM      9  C8  UNK     1      30.029 -21.966  -0.043  1.00  0.00     0.004 A 
ATOM     10  C9  UNK     1      34.363 -19.369   0.233  1.00  0.00     0.001 A 
ATOM     11  C10 UNK     1      34.398 -20.284   1.279  1.00  0.00     0.001 A 
ENDROOT
TORSDOF 0
ENDMDL
MODEL 6
REMARK VINA RESULT:      -5.6     13.816     14.953
REMARK  0 active torsions:
REMARK  status: ('A' for Active; 'I' for Inactive)
ROOT
ATOM      1  F1  UNK     1      32.993 -18.458  -1.821  1.00  0.00    -0.205 F 
ATOM      2  C1  UNK     1      32.063 -20.223  -0.516  1.00  0.00     0.013 A 
ATOM      3  C2  UNK     1      32.200 -21.116   0.573  1.00  0.00    -0.023 A 
ATOM      4  C3  UNK     1      33.097 -19.315  -0.794  1.00  0.00     0.127 A 
ATOM      5  C4  UNK     1      33.367 -21.075   1.352  1.00  0.00     0.012 A 
ATOM      6  C5  UNK     1      30.895 -20.265  -1.296  1.00  0.00     0.015 A 
ATOM      7  C6  UNK     1      31.165 -22.025   0.851  1.00  0.00     0.012 A 
ATOM      8  C7  UNK     1      34.250 -19.287  -0.009  1.00  0.00     0.043 A 
ATOM      9  C8  UNK     1      34.385 -20.166   1.062  1.00  0.00     0.004 A 
ATOM     10  C9  UNK     1      29.877 -21.175  -1.006  1.00  0.00     0.001 A 
ATOM     11  C10 UNK     1      30.012 -22.052   0.064  1.00  0.00     0.001 A 
ENDROOT
TORSDOF 0
ENDMDL
MODEL 7
REMARK VINA RESULT:      -5.5     12.895     14.316
REMARK  0 active torsions:
REMARK  status: ('A' for Active; 'I' for Inactive)
ROOT
ATOM      1  F1  UNK     1      29.515 -18.545   1.613  1.00  0.00    -0.205 F 
ATOM      2  C1  UNK     1      31.580 -19.732   1.528  1.00  0.00     0.013 A 
ATOM      3  C2  UNK     1      32.271 -20.924   1.207  1.00  0.00    -0.023 A 
ATOM      4  C3  UNK     1      30.193 -19.663   1.316  1.00  0.00     0.127 A 
ATOM      5  C4  UNK     1      31.556 -22.012   0.682  1.00  0.00     0.012 A 
ATOM      6  C5  UNK     1      32.296 -18.643   2.053  1.00  0.00     0.015 A 
ATOM      7  C6  UNK     1      33.658 -20.993   1.419  1.00  0.00     0.012 A 
ATOM      8  C7  UNK     1      29.498 -20.754   0.794  1.00  0.00     0.043 A 
ATOM      9  C8  UNK     1      30.179 -21.927   0.478  1.00  0.00     0.004 A 
ATOM     10  C9  UNK     1      33.674 -18.729   2.258  1.00  0.00     0.001 A 
ATOM     11  C10 UNK     1      34.353 -19.901   1.942  1.00  0.00     0.001 A 
ENDROOT
TORSDOF 0
ENDMDL
MODEL 8
REMARK VINA RESULT:      -5.5     12.643     13.837
REMARK  0 active torsions:
REMARK  status: ('A' for Active; 'I' for Inactive)
ROOT
ATOM      1  F1  UNK     1      31.736 -17.537   2.468  1.00  0.00    -0.205 F 
ATOM      2  C1  UNK     1      31.596 -19.739   1.565  1.00  0.00     0.013 A 
ATOM      3  C2  UNK     1      32.260 -20.931   1.192  1.00  0.00    -0.023 A 
ATOM      4  C3  UNK     1      32.341 -18.678   2.105  1.00  0.00     0.127 A 
ATOM      5  C4  UNK     1      33.650 -21.027   1.369  1.00  0.00     0.012 A 
ATOM      6  C5  UNK     1      30.206 -19.643   1.388  1.00  0.00     0.015 A 
ATOM      7  C6  UNK     1      31.516 -21.992   0.651  1.00  0.00     0.012 A 
ATOM      8  C7  UNK     1      33.721 -18.791   2.275  1.00  0.00     0.043 A 
ATOM      9  C8  UNK     1      34.375 -19.964   1.906  1.00  0.00     0.004 A 
ATOM     10  C9  UNK     1      29.482 -20.707   0.850  1.00  0.00     0.001 A 
ATOM     11  C10 UNK     1      30.135 -21.878   0.482  1.00  0.00     0.001 A 
ENDROOT
TORSDOF 0
ENDMDL
MODEL 9
REMARK VINA RESULT:      -5.5     21.099     21.531
REMARK  0 active torsions:
REMARK  status: ('A' for Active; 'I' for Inactive)
ROOT
ATOM      1  F1  UNK     1      36.673 -36.140  -0.677  1.00  0.00    -0.205 F 
ATOM      2  C1  UNK     1      35.870 -34.599  -2.309  1.00  0.00     0.013 A 
ATOM      3  C2  UNK     1      34.765 -33.968  -2.928  1.00  0.00    -0.023 A 
ATOM      4  C3  UNK     1      35.643 -35.528  -1.280  1.00  0.00     0.127 A 
ATOM      5  C4  UNK     1      33.465 -34.283  -2.499  1.00  0.00     0.012 A 
ATOM      6  C5  UNK     1      37.169 -34.284  -2.738  1.00  0.00     0.015 A 
ATOM      7  C6  UNK     1      34.991 -33.040  -3.958  1.00  0.00     0.012 A 
ATOM      8  C7  UNK     1      34.345 -35.829  -0.866  1.00  0.00     0.043 A 
ATOM      9  C8  UNK     1      33.258 -35.208  -1.475  1.00  0.00     0.004 A 
ATOM     10  C9  UNK     1      37.376 -33.360  -3.763  1.00  0.00     0.001 A 
ATOM     11  C10 UNK     1      36.290 -32.740  -4.371  1.00  0.00     0.001 A 
ENDROOT
TORSDOF 0
ENDMDL
