REMARK  0 active torsions:
REMARK  status: ('A' for Active; 'I' for Inactive)
ROOT
ATOM      1  F1  UNK     1     -58.881  41.522   7.182  1.00  0.00    -0.205 F 
ATOM      2  C1  UNK     1     -59.426  41.137   9.471  1.00  0.00     0.013 A 
ATOM      3  C2  UNK     1     -59.134  40.464  10.681  1.00  0.00    -0.023 A 
ATOM      4  C3  UNK     1     -58.626  40.897   8.342  1.00  0.00     0.127 A 
ATOM      5  C4  UNK     1     -58.050  39.572  10.727  1.00  0.00     0.012 A 
ATOM      6  C5  UNK     1     -60.509  42.029   9.425  1.00  0.00     0.015 A 
ATOM      7  C6  UNK     1     -59.934  40.703  11.810  1.00  0.00     0.012 A 
ATOM      8  C7  UNK     1     -57.553  40.007   8.405  1.00  0.00     0.043 A 
ATOM      9  C8  UNK     1     -57.266  39.346   9.595  1.00  0.00     0.004 A 
ATOM     10  C9  UNK     1     -61.294  42.255  10.556  1.00  0.00     0.001 A 
ATOM     11  C10 UNK     1     -61.007  41.593  11.747  1.00  0.00     0.001 A 
ENDROOT
TORSDOF 0
