REMARK  3 active torsions:
REMARK  status: ('A' for Active; 'I' for Inactive)
REMARK    1  A    between atoms: O1_2  and  C1_3 
REMARK    2  A    between atoms: O1_2  and  C4_6 
REMARK    3  A    between atoms: C4_6  and  C8_10 
ROOT
ATOM      1  F1  UNK     1     -22.333  48.798 -15.832  1.00  0.00    -0.203 F 
ATOM      2  C1  UNK     1     -22.166  48.905 -13.468  1.00  0.00     0.107 A 
ATOM      3  C2  UNK     1     -22.475  48.209 -14.637  1.00  0.00     0.149 A 
ATOM      4  C3  UNK     1     -22.317  48.287 -12.227  1.00  0.00     0.040 A 
ATOM      5  C5  UNK     1     -22.935  46.894 -14.564  1.00  0.00     0.045 A 
ATOM      6  C6  UNK     1     -22.777  46.972 -12.155  1.00  0.00     0.003 A 
ATOM      7  C7  UNK     1     -23.086  46.276 -13.323  1.00  0.00     0.003 A 
ENDROOT
BRANCH   2   8
ATOM      8  O1  UNK     1     -21.716  50.188 -13.538  1.00  0.00    -0.344 OA
BRANCH   8   9
ATOM      9  C4  UNK     1     -22.027  51.046 -12.441  1.00  0.00     0.202 C 
BRANCH   9  10
ATOM     10  C8  UNK     1     -22.083  52.454 -12.934  1.00  0.00    -0.011 C 
ATOM     11  C9  UNK     1     -23.168  53.231 -12.851  1.00  0.00     0.009 C 
ENDBRANCH   9  10
ENDBRANCH   8   9
ENDBRANCH   2   8
TORSDOF 3
