MODEL 1
REMARK VINA RESULT:      -6.6      0.000      0.000
REMARK  3 active torsions:
REMARK  status: ('A' for Active; 'I' for Inactive)
REMARK    1  A    between atoms: O1_2  and  C1_3 
REMARK    2  A    between atoms: O1_2  and  C4_6 
REMARK    3  A    between atoms: C4_6  and  C8_10 
ROOT
ATOM      1  F1  UNK     1     -38.956  26.461 -13.781  1.00  0.00    -0.203 F 
ATOM      2  C1  UNK     1     -37.588  25.314 -12.219  1.00  0.00     0.107 A 
ATOM      3  C2  UNK     1     -38.414  26.386 -12.558  1.00  0.00     0.149 A 
ATOM      4  C3  UNK     1     -37.026  25.242 -10.945  1.00  0.00     0.040 A 
ATOM      5  C5  UNK     1     -38.678  27.386 -11.622  1.00  0.00     0.045 A 
ATOM      6  C6  UNK     1     -37.290  26.242 -10.009  1.00  0.00     0.003 A 
ATOM      7  C7  UNK     1     -38.115  27.314 -10.348  1.00  0.00     0.003 A 
ENDROOT
BRANCH   2   8
ATOM      8  O1  UNK     1     -37.331  24.337 -13.132  1.00  0.00    -0.344 OA
BRANCH   8   9
ATOM      9  C4  UNK     1     -36.122  23.597 -12.967  1.00  0.00     0.202 C 
BRANCH   9  10
ATOM     10  C8  UNK     1     -35.230  23.870 -14.133  1.00  0.00    -0.011 C 
ATOM     11  C9  UNK     1     -35.650  23.906 -15.402  1.00  0.00     0.009 C 
ENDBRANCH   9  10
ENDBRANCH   8   9
ENDBRANCH   2   8
TORSDOF 3
ENDMDL
MODEL 2
REMARK VINA RESULT:      -6.4      1.923      2.562
REMARK  3 active torsions:
REMARK  status: ('A' for Active; 'I' for Inactive)
REMARK    1  A    between atoms: O1_2  and  C1_3 
REMARK    2  A    between atoms: O1_2  and  C4_6 
REMARK    3  A    between atoms: C4_6  and  C8_10 
ROOT
ATOM      1  F1  UNK     1     -36.680  25.871  -9.719  1.00  0.00    -0.203 F 
ATOM      2  C1  UNK     1     -37.339  25.046 -11.843  1.00  0.00     0.107 A 
ATOM      3  C2  UNK     1     -37.389  26.020 -10.846  1.00  0.00     0.149 A 
ATOM      4  C3  UNK     1     -38.081  25.206 -13.013  1.00  0.00     0.040 A 
ATOM      5  C5  UNK     1     -38.181  27.156 -11.020  1.00  0.00     0.045 A 
ATOM      6  C6  UNK     1     -38.872  26.342 -13.187  1.00  0.00     0.003 A 
ATOM      7  C7  UNK     1     -38.922  27.316 -12.190  1.00  0.00     0.003 A 
ENDROOT
BRANCH   2   8
ATOM      8  O1  UNK     1     -36.566  23.938 -11.674  1.00  0.00    -0.344 OA
BRANCH   8   9
ATOM      9  C4  UNK     1     -35.491  23.750 -12.594  1.00  0.00     0.202 C 
BRANCH   9  10
ATOM     10  C8  UNK     1     -34.248  24.327 -12.003  1.00  0.00    -0.011 C 
ATOM     11  C9  UNK     1     -33.182  24.695 -12.721  1.00  0.00     0.009 C 
ENDBRANCH   9  10
ENDBRANCH   8   9
ENDBRANCH   2   8
TORSDOF 3
ENDMDL
MODEL 3
REMARK VINA RESULT:      -6.0      1.673      2.203
REMARK  3 active torsions:
REMARK  status: ('A' for Active; 'I' for Inactive)
REMARK    1  A    between atoms: O1_2  and  C1_3 
REMARK    2  A    between atoms: O1_2  and  C4_6 
REMARK    3  A    between atoms: C4_6  and  C8_10 
ROOT
ATOM      1  F1  UNK     1     -35.976  24.924 -10.352  1.00  0.00    -0.203 F 
ATOM      2  C1  UNK     1     -37.366  25.463 -12.197  1.00  0.00     0.107 A 
ATOM      3  C2  UNK     1     -36.952  25.674 -10.881  1.00  0.00     0.149 A 
ATOM      4  C3  UNK     1     -38.383  26.246 -12.743  1.00  0.00     0.040 A 
ATOM      5  C5  UNK     1     -37.556  26.668 -10.112  1.00  0.00     0.045 A 
ATOM      6  C6  UNK     1     -38.987  27.240 -11.972  1.00  0.00     0.003 A 
ATOM      7  C7  UNK     1     -38.573  27.451 -10.657  1.00  0.00     0.003 A 
ENDROOT
BRANCH   2   8
ATOM      8  O1  UNK     1     -36.777  24.494 -12.950  1.00  0.00    -0.344 OA
BRANCH   8   9
ATOM      9  C4  UNK     1     -37.410  24.155 -14.183  1.00  0.00     0.202 C 
BRANCH   9  10
ATOM     10  C8  UNK     1     -36.391  23.558 -15.097  1.00  0.00    -0.011 C 
ATOM     11  C9  UNK     1     -35.680  24.262 -15.983  1.00  0.00     0.009 C 
ENDBRANCH   9  10
ENDBRANCH   8   9
ENDBRANCH   2   8
TORSDOF 3
ENDMDL
MODEL 4
REMARK VINA RESULT:      -5.9      1.622      2.250
REMARK  3 active torsions:
REMARK  status: ('A' for Active; 'I' for Inactive)
REMARK    1  A    between atoms: O1_2  and  C1_3 
REMARK    2  A    between atoms: O1_2  and  C4_6 
REMARK    3  A    between atoms: C4_6  and  C8_10 
ROOT
ATOM      1  F1  UNK     1     -37.976  24.327 -14.031  1.00  0.00    -0.203 F 
ATOM      2  C1  UNK     1     -37.260  25.275 -11.977  1.00  0.00     0.107 A 
ATOM      3  C2  UNK     1     -38.093  25.280 -13.097  1.00  0.00     0.149 A 
ATOM      4  C3  UNK     1     -37.386  26.271 -11.009  1.00  0.00     0.040 A 
ATOM      5  C5  UNK     1     -39.052  26.282 -13.247  1.00  0.00     0.045 A 
ATOM      6  C6  UNK     1     -38.345  27.272 -11.160  1.00  0.00     0.003 A 
ATOM      7  C7  UNK     1     -39.178  27.278 -12.279  1.00  0.00     0.003 A 
ENDROOT
BRANCH   2   8
ATOM      8  O1  UNK     1     -36.325  24.297 -11.829  1.00  0.00    -0.344 OA
BRANCH   8   9
ATOM      9  C4  UNK     1     -35.042  24.532 -12.409  1.00  0.00     0.202 C 
BRANCH   9  10
ATOM     10  C8  UNK     1     -34.022  23.749 -11.651  1.00  0.00    -0.011 C 
ATOM     11  C9  UNK     1     -34.247  22.539 -11.129  1.00  0.00     0.009 C 
ENDBRANCH   9  10
ENDBRANCH   8   9
ENDBRANCH   2   8
TORSDOF 3
ENDMDL
MODEL 5
REMARK VINA RESULT:      -5.9      2.126      4.655
REMARK  3 active torsions:
REMARK  status: ('A' for Active; 'I' for Inactive)
REMARK    1  A    between atoms: O1_2  and  C1_3 
REMARK    2  A    between atoms: O1_2  and  C4_6 
REMARK    3  A    between atoms: C4_6  and  C8_10 
ROOT
ATOM      1  F1  UNK     1     -33.736  24.615 -12.306  1.00  0.00    -0.203 F 
ATOM      2  C1  UNK     1     -36.107  24.644 -12.255  1.00  0.00     0.107 A 
ATOM      3  C2  UNK     1     -34.906  24.385 -12.916  1.00  0.00     0.149 A 
ATOM      4  C3  UNK     1     -37.323  24.404 -12.896  1.00  0.00     0.040 A 
ATOM      5  C5  UNK     1     -34.921  23.885 -14.219  1.00  0.00     0.045 A 
ATOM      6  C6  UNK     1     -37.337  23.904 -14.198  1.00  0.00     0.003 A 
ATOM      7  C7  UNK     1     -36.137  23.645 -14.859  1.00  0.00     0.003 A 
ENDROOT
BRANCH   2   8
ATOM      8  O1  UNK     1     -36.094  25.131 -10.984  1.00  0.00    -0.344 OA
BRANCH   8   9
ATOM      9  C4  UNK     1     -37.345  25.200 -10.302  1.00  0.00     0.202 C 
BRANCH   9  10
ATOM     10  C8  UNK     1     -37.634  26.628  -9.973  1.00  0.00    -0.011 C 
ATOM     11  C9  UNK     1     -38.028  27.536 -10.872  1.00  0.00     0.009 C 
ENDBRANCH   9  10
ENDBRANCH   8   9
ENDBRANCH   2   8
TORSDOF 3
ENDMDL
MODEL 6
REMARK VINA RESULT:      -5.6      3.073      5.304
REMARK  3 active torsions:
REMARK  status: ('A' for Active; 'I' for Inactive)
REMARK    1  A    between atoms: O1_2  and  C1_3 
REMARK    2  A    between atoms: O1_2  and  C4_6 
REMARK    3  A    between atoms: C4_6  and  C8_10 
ROOT
ATOM      1  F1  UNK     1     -32.964  25.424 -12.914  1.00  0.00    -0.203 F 
ATOM      2  C1  UNK     1     -34.532  23.994 -11.853  1.00  0.00     0.107 A 
ATOM      3  C2  UNK     1     -33.240  24.262 -12.306  1.00  0.00     0.149 A 
ATOM      4  C3  UNK     1     -34.813  22.782 -11.223  1.00  0.00     0.040 A 
ATOM      5  C5  UNK     1     -32.229  23.317 -12.129  1.00  0.00     0.045 A 
ATOM      6  C6  UNK     1     -33.802  21.838 -11.046  1.00  0.00     0.003 A 
ATOM      7  C7  UNK     1     -32.511  22.105 -11.499  1.00  0.00     0.003 A 
ENDROOT
BRANCH   2   8
ATOM      8  O1  UNK     1     -35.519  24.916 -12.025  1.00  0.00    -0.344 OA
BRANCH   8   9
ATOM      9  C4  UNK     1     -36.767  24.658 -11.384  1.00  0.00     0.202 C 
BRANCH   9  10
ATOM     10  C8  UNK     1     -36.965  25.660 -10.295  1.00  0.00    -0.011 C 
ATOM     11  C9  UNK     1     -37.743  26.741 -10.409  1.00  0.00     0.009 C 
ENDBRANCH   9  10
ENDBRANCH   8   9
ENDBRANCH   2   8
TORSDOF 3
ENDMDL
MODEL 7
REMARK VINA RESULT:      -5.2      2.727      4.148
REMARK  3 active torsions:
REMARK  status: ('A' for Active; 'I' for Inactive)
REMARK    1  A    between atoms: O1_2  and  C1_3 
REMARK    2  A    between atoms: O1_2  and  C4_6 
REMARK    3  A    between atoms: C4_6  and  C8_10 
ROOT
ATOM      1  F1  UNK     1     -35.441  24.755 -10.868  1.00  0.00    -0.203 F 
ATOM      2  C1  UNK     1     -34.949  23.962 -13.049  1.00  0.00     0.107 A 
ATOM      3  C2  UNK     1     -35.849  24.471 -12.112  1.00  0.00     0.149 A 
ATOM      4  C3  UNK     1     -35.380  23.666 -14.342  1.00  0.00     0.040 A 
ATOM      5  C5  UNK     1     -37.181  24.684 -12.470  1.00  0.00     0.045 A 
ATOM      6  C6  UNK     1     -36.711  23.880 -14.699  1.00  0.00     0.003 A 
ATOM      7  C7  UNK     1     -37.611  24.389 -13.763  1.00  0.00     0.003 A 
ENDROOT
BRANCH   2   8
ATOM      8  O1  UNK     1     -33.649  23.754 -12.701  1.00  0.00    -0.344 OA
BRANCH   8   9
ATOM      9  C4  UNK     1     -33.118  22.449 -12.926  1.00  0.00     0.202 C 
BRANCH   9  10
ATOM     10  C8  UNK     1     -33.602  21.541 -11.844  1.00  0.00    -0.011 C 
ATOM     11  C9  UNK     1     -33.522  21.825 -10.540  1.00  0.00     0.009 C 
ENDBRANCH   9  10
ENDBRANCH   8   9
ENDBRANCH   2   8
TORSDOF 3
ENDMDL
MODEL 8
REMARK VINA RESULT:      -4.9      2.956      4.113
REMARK  3 active torsions:
REMARK  status: ('A' for Active; 'I' for Inactive)
REMARK    1  A    between atoms: O1_2  and  C1_3 
REMARK    2  A    between atoms: O1_2  and  C4_6 
REMARK    3  A    between atoms: C4_6  and  C8_10 
ROOT
ATOM      1  F1  UNK     1     -34.400  22.839 -14.642  1.00  0.00    -0.203 F 
ATOM      2  C1  UNK     1     -35.480  23.188 -12.559  1.00  0.00     0.107 A 
ATOM      3  C2  UNK     1     -35.445  23.311 -13.948  1.00  0.00     0.149 A 
ATOM      4  C3  UNK     1     -36.570  23.681 -11.842  1.00  0.00     0.040 A 
ATOM      5  C5  UNK     1     -36.501  23.927 -14.620  1.00  0.00     0.045 A 
ATOM      6  C6  UNK     1     -37.625  24.297 -12.514  1.00  0.00     0.003 A 
ATOM      7  C7  UNK     1     -37.590  24.420 -13.903  1.00  0.00     0.003 A 
ENDROOT
BRANCH   2   8
ATOM      8  O1  UNK     1     -34.451  22.586 -11.902  1.00  0.00    -0.344 OA
BRANCH   8   9
ATOM      9  C4  UNK     1     -33.496  23.438 -11.270  1.00  0.00     0.202 C 
BRANCH   9  10
ATOM     10  C8  UNK     1     -32.294  23.547 -12.148  1.00  0.00    -0.011 C 
ATOM     11  C9  UNK     1     -31.600  22.495 -12.596  1.00  0.00     0.009 C 
ENDBRANCH   9  10
ENDBRANCH   8   9
ENDBRANCH   2   8
TORSDOF 3
ENDMDL
MODEL 9
REMARK VINA RESULT:      -4.8      4.483      5.639
REMARK  3 active torsions:
REMARK  status: ('A' for Active; 'I' for Inactive)
REMARK    1  A    between atoms: O1_2  and  C1_3 
REMARK    2  A    between atoms: O1_2  and  C4_6 
REMARK    3  A    between atoms: C4_6  and  C8_10 
ROOT
ATOM      1  F1  UNK     1     -33.882  21.635 -10.229  1.00  0.00    -0.203 F 
ATOM      2  C1  UNK     1     -32.753  23.240 -11.562  1.00  0.00     0.107 A 
ATOM      3  C2  UNK     1     -33.930  22.649 -11.103  1.00  0.00     0.149 A 
ATOM      4  C3  UNK     1     -32.809  24.295 -12.472  1.00  0.00     0.040 A 
ATOM      5  C5  UNK     1     -35.165  23.115 -11.555  1.00  0.00     0.045 A 
ATOM      6  C6  UNK     1     -34.045  24.759 -12.924  1.00  0.00     0.003 A 
ATOM      7  C7  UNK     1     -35.222  24.169 -12.466  1.00  0.00     0.003 A 
ENDROOT
BRANCH   2   8
ATOM      8  O1  UNK     1     -31.547  22.788 -11.120  1.00  0.00    -0.344 OA
BRANCH   8   9
ATOM      9  C4  UNK     1     -31.192  21.448 -11.459  1.00  0.00     0.202 C 
BRANCH   9  10
ATOM     10  C8  UNK     1     -31.027  21.355 -12.940  1.00  0.00    -0.011 C 
ATOM     11  C9  UNK     1     -31.586  20.404 -13.695  1.00  0.00     0.009 C 
ENDBRANCH   9  10
ENDBRANCH   8   9
ENDBRANCH   2   8
TORSDOF 3
ENDMDL
