MODEL 1
REMARK VINA RESULT:      -7.5      0.000      0.000
REMARK  4 active torsions:
REMARK  status: ('A' for Active; 'I' for Inactive)
REMARK    1  A    between atoms: S1_1  and  C3_7 
REMARK    2  A    between atoms: S1_1  and  C9_13 
REMARK    3  A    between atoms: C1_5  and  C2_6 
REMARK    4  A    between atoms: C1_5  and  C3_7 
ROOT
ATOM      1  C3  UNK     1     -36.130  23.184 -12.332  1.00  0.00     0.085 C 
ENDROOT
BRANCH   1   2
ATOM      2  S1  UNK     1     -34.471  23.115 -13.076  1.00  0.00    -0.107 SA
BRANCH   2   3
ATOM      3  C9  UNK     1     -33.610  22.064 -11.913  1.00  0.00     0.134 A 
ATOM      4  N1  UNK     1     -33.996  21.902 -10.644  1.00  0.00    -0.149 NA
ATOM      5  N2  UNK     1     -33.059  21.050 -10.199  1.00  0.00    -0.196 N 
ATOM      6  N3  UNK     1     -32.105  20.644 -11.051  1.00  0.00    -0.167 NA
ATOM      7  H11 UNK     1     -33.071  20.720  -9.240  1.00  0.00     0.213 HD
ATOM      8  C10 UNK     1     -32.460  21.300 -12.160  1.00  0.00     0.180 A 
ENDBRANCH   2   3
ENDBRANCH   1   2
BRANCH   1   9
ATOM      9  C1  UNK     1     -37.019  24.261 -12.978  1.00  0.00     0.049 C 
BRANCH   9  10
ATOM     10  C2  UNK     1     -37.440  25.362 -12.064  1.00  0.00    -0.057 A 
ATOM     11  C4  UNK     1     -38.282  26.373 -12.531  1.00  0.00     0.007 A 
ATOM     12  C6  UNK     1     -38.675  27.403 -11.676  1.00  0.00     0.001 A 
ATOM     13  C8  UNK     1     -38.227  27.422 -10.354  1.00  0.00     0.000 A 
ATOM     14  C7  UNK     1     -37.386  26.411  -9.889  1.00  0.00     0.001 A 
ATOM     15  C5  UNK     1     -36.993  25.382 -10.743  1.00  0.00     0.007 A 
ENDBRANCH   9  10
ENDBRANCH   1   9
TORSDOF 4
ENDMDL
MODEL 2
REMARK VINA RESULT:      -6.3      2.378      3.489
REMARK  4 active torsions:
REMARK  status: ('A' for Active; 'I' for Inactive)
REMARK    1  A    between atoms: S1_1  and  C3_7 
REMARK    2  A    between atoms: S1_1  and  C9_13 
REMARK    3  A    between atoms: C1_5  and  C2_6 
REMARK    4  A    between atoms: C1_5  and  C3_7 
ROOT
ATOM      1  C3  UNK     1     -33.214  23.455 -10.859  1.00  0.00     0.085 C 
ENDROOT
BRANCH   1   2
ATOM      2  S1  UNK     1     -33.448  21.686 -11.214  1.00  0.00    -0.107 SA
BRANCH   2   3
ATOM      3  C9  UNK     1     -32.087  21.370 -12.331  1.00  0.00     0.134 A 
ATOM      4  N1  UNK     1     -30.812  21.311 -11.935  1.00  0.00    -0.149 NA
ATOM      5  N2  UNK     1     -30.195  21.060 -13.101  1.00  0.00    -0.196 N 
ATOM      6  N3  UNK     1     -30.942  20.951 -14.211  1.00  0.00    -0.167 NA
ATOM      7  H11 UNK     1     -29.188  20.956 -13.143  1.00  0.00     0.213 HD
ATOM      8  C10 UNK     1     -32.165  21.152 -13.713  1.00  0.00     0.180 A 
ENDBRANCH   2   3
ENDBRANCH   1   2
BRANCH   1   9
ATOM      9  C1  UNK     1     -33.407  24.335 -12.107  1.00  0.00     0.049 C 
BRANCH   9  10
ATOM     10  C2  UNK     1     -34.767  24.275 -12.716  1.00  0.00    -0.057 A 
ATOM     11  C4  UNK     1     -34.919  23.883 -14.047  1.00  0.00     0.007 A 
ATOM     12  C6  UNK     1     -36.191  23.827 -14.617  1.00  0.00     0.001 A 
ATOM     13  C8  UNK     1     -37.311  24.165 -13.856  1.00  0.00     0.000 A 
ATOM     14  C7  UNK     1     -37.159  24.558 -12.526  1.00  0.00     0.001 A 
ATOM     15  C5  UNK     1     -35.887  24.613 -11.957  1.00  0.00     0.007 A 
ENDBRANCH   9  10
ENDBRANCH   1   9
TORSDOF 4
ENDMDL
MODEL 3
REMARK VINA RESULT:      -6.2      3.472      6.616
REMARK  4 active torsions:
REMARK  status: ('A' for Active; 'I' for Inactive)
REMARK    1  A    between atoms: S1_1  and  C3_7 
REMARK    2  A    between atoms: S1_1  and  C9_13 
REMARK    3  A    between atoms: C1_5  and  C2_6 
REMARK    4  A    between atoms: C1_5  and  C3_7 
ROOT
ATOM      1  C3  UNK     1     -36.257  23.684 -11.490  1.00  0.00     0.085 C 
ENDROOT
BRANCH   1   2
ATOM      2  S1  UNK     1     -37.403  24.329 -12.748  1.00  0.00    -0.107 SA
BRANCH   2   3
ATOM      3  C9  UNK     1     -37.834  25.917 -12.046  1.00  0.00     0.134 A 
ATOM      4  N1  UNK     1     -37.304  26.387 -10.914  1.00  0.00    -0.149 NA
ATOM      5  N2  UNK     1     -37.928  27.572 -10.813  1.00  0.00    -0.196 N 
ATOM      6  N3  UNK     1     -38.809  27.915 -11.765  1.00  0.00    -0.167 NA
ATOM      7  H11 UNK     1     -37.738  28.193 -10.034  1.00  0.00     0.213 HD
ATOM      8  C10 UNK     1     -38.749  26.845 -12.562  1.00  0.00     0.180 A 
ENDBRANCH   2   3
ENDBRANCH   1   2
BRANCH   1   9
ATOM      9  C1  UNK     1     -34.790  24.032 -11.798  1.00  0.00     0.049 C 
BRANCH   9  10
ATOM     10  C2  UNK     1     -33.858  22.868 -11.826  1.00  0.00    -0.057 A 
ATOM     11  C4  UNK     1     -33.082  22.623 -12.960  1.00  0.00     0.007 A 
ATOM     12  C6  UNK     1     -32.210  21.534 -12.986  1.00  0.00     0.001 A 
ATOM     13  C8  UNK     1     -32.114  20.691 -11.878  1.00  0.00     0.000 A 
ATOM     14  C7  UNK     1     -32.890  20.937 -10.745  1.00  0.00     0.001 A 
ATOM     15  C5  UNK     1     -33.762  22.025 -10.719  1.00  0.00     0.007 A 
ENDBRANCH   9  10
ENDBRANCH   1   9
TORSDOF 4
ENDMDL
MODEL 4
REMARK VINA RESULT:      -6.1      1.786      2.570
REMARK  4 active torsions:
REMARK  status: ('A' for Active; 'I' for Inactive)
REMARK    1  A    between atoms: S1_1  and  C3_7 
REMARK    2  A    between atoms: S1_1  and  C9_13 
REMARK    3  A    between atoms: C1_5  and  C2_6 
REMARK    4  A    between atoms: C1_5  and  C3_7 
ROOT
ATOM      1  C3  UNK     1     -34.666  22.742 -11.946  1.00  0.00     0.085 C 
ENDROOT
BRANCH   1   2
ATOM      2  S1  UNK     1     -33.669  21.785 -10.762  1.00  0.00    -0.107 SA
BRANCH   2   3
ATOM      3  C9  UNK     1     -32.267  21.327 -11.775  1.00  0.00     0.134 A 
ATOM      4  N1  UNK     1     -32.322  21.236 -13.106  1.00  0.00    -0.149 NA
ATOM      5  N2  UNK     1     -31.061  20.873 -13.389  1.00  0.00    -0.196 N 
ATOM      6  N3  UNK     1     -30.195  20.720 -12.375  1.00  0.00    -0.167 NA
ATOM      7  H11 UNK     1     -30.769  20.717 -14.348  1.00  0.00     0.213 HD
ATOM      8  C10 UNK     1     -30.975  21.013 -11.331  1.00  0.00     0.180 A 
ENDBRANCH   2   3
ENDBRANCH   1   2
BRANCH   1   9
ATOM      9  C1  UNK     1     -35.022  24.142 -11.418  1.00  0.00     0.049 C 
BRANCH   9  10
ATOM     10  C2  UNK     1     -36.267  24.733 -11.989  1.00  0.00    -0.057 A 
ATOM     11  C4  UNK     1     -36.860  25.838 -11.375  1.00  0.00     0.007 A 
ATOM     12  C6  UNK     1     -38.024  26.390 -11.908  1.00  0.00     0.001 A 
ATOM     13  C8  UNK     1     -38.596  25.838 -13.055  1.00  0.00     0.000 A 
ATOM     14  C7  UNK     1     -38.003  24.735 -13.668  1.00  0.00     0.001 A 
ATOM     15  C5  UNK     1     -36.839  24.182 -13.135  1.00  0.00     0.007 A 
ENDBRANCH   9  10
ENDBRANCH   1   9
TORSDOF 4
ENDMDL
MODEL 5
REMARK VINA RESULT:      -5.7      4.953      6.410
REMARK  4 active torsions:
REMARK  status: ('A' for Active; 'I' for Inactive)
REMARK    1  A    between atoms: S1_1  and  C3_7 
REMARK    2  A    between atoms: S1_1  and  C9_13 
REMARK    3  A    between atoms: C1_5  and  C2_6 
REMARK    4  A    between atoms: C1_5  and  C3_7 
ROOT
ATOM      1  C3  UNK     1     -31.199  20.835 -14.319  1.00  0.00     0.085 C 
ENDROOT
BRANCH   1   2
ATOM      2  S1  UNK     1     -31.617  19.270 -15.149  1.00  0.00    -0.107 SA
BRANCH   2   3
ATOM      3  C9  UNK     1     -31.944  19.834 -16.815  1.00  0.00     0.134 A 
ATOM      4  N1  UNK     1     -33.043  19.504 -17.498  1.00  0.00    -0.149 NA
ATOM      5  N2  UNK     1     -32.829  20.152 -18.654  1.00  0.00    -0.196 N 
ATOM      6  N3  UNK     1     -31.702  20.869 -18.788  1.00  0.00    -0.167 NA
ATOM      7  H11 UNK     1     -33.503  20.101 -19.410  1.00  0.00     0.213 HD
ATOM      8  C10 UNK     1     -31.129  20.663 -17.598  1.00  0.00     0.180 A 
ENDBRANCH   2   3
ENDBRANCH   1   2
BRANCH   1   9
ATOM      9  C1  UNK     1     -31.384  20.758 -12.794  1.00  0.00     0.049 C 
BRANCH   9  10
ATOM     10  C2  UNK     1     -32.295  21.788 -12.216  1.00  0.00    -0.057 A 
ATOM     11  C4  UNK     1     -32.131  23.132 -12.552  1.00  0.00     0.007 A 
ATOM     12  C6  UNK     1     -32.983  24.095 -12.011  1.00  0.00     0.001 A 
ATOM     13  C8  UNK     1     -34.000  23.713 -11.135  1.00  0.00     0.000 A 
ATOM     14  C7  UNK     1     -34.164  22.370 -10.800  1.00  0.00     0.001 A 
ATOM     15  C5  UNK     1     -33.311  21.407 -11.340  1.00  0.00     0.007 A 
ENDBRANCH   9  10
ENDBRANCH   1   9
TORSDOF 4
ENDMDL
MODEL 6
REMARK VINA RESULT:      -5.7     14.318     15.115
REMARK  4 active torsions:
REMARK  status: ('A' for Active; 'I' for Inactive)
REMARK    1  A    between atoms: S1_1  and  C3_7 
REMARK    2  A    between atoms: S1_1  and  C9_13 
REMARK    3  A    between atoms: C1_5  and  C2_6 
REMARK    4  A    between atoms: C1_5  and  C3_7 
ROOT
ATOM      1  C3  UNK     1     -33.154  12.321  -4.772  1.00  0.00     0.085 C 
ENDROOT
BRANCH   1   2
ATOM      2  S1  UNK     1     -33.451  10.526  -4.709  1.00  0.00    -0.107 SA
BRANCH   2   3
ATOM      3  C9  UNK     1     -33.683  10.148  -6.441  1.00  0.00     0.134 A 
ATOM      4  N1  UNK     1     -32.814   9.430  -7.158  1.00  0.00    -0.149 NA
ATOM      5  N2  UNK     1     -33.416   9.426  -8.358  1.00  0.00    -0.196 N 
ATOM      6  N3  UNK     1     -34.587  10.068  -8.490  1.00  0.00    -0.167 NA
ATOM      7  H11 UNK     1     -32.996   8.948  -9.148  1.00  0.00     0.213 HD
ATOM      8  C10 UNK     1     -34.760  10.536  -7.251  1.00  0.00     0.180 A 
ENDBRANCH   2   3
ENDBRANCH   1   2
BRANCH   1   9
ATOM      9  C1  UNK     1     -31.881  12.732  -4.015  1.00  0.00     0.049 C 
BRANCH   9  10
ATOM     10  C2  UNK     1     -30.616  12.614  -4.796  1.00  0.00    -0.057 A 
ATOM     11  C4  UNK     1     -30.662  12.305  -6.157  1.00  0.00     0.007 A 
ATOM     12  C6  UNK     1     -29.479  12.194  -6.887  1.00  0.00     0.001 A 
ATOM     13  C8  UNK     1     -28.250  12.391  -6.257  1.00  0.00     0.000 A 
ATOM     14  C7  UNK     1     -28.204  12.699  -4.898  1.00  0.00     0.001 A 
ATOM     15  C5  UNK     1     -29.387  12.810  -4.168  1.00  0.00     0.007 A 
ENDBRANCH   9  10
ENDBRANCH   1   9
TORSDOF 4
ENDMDL
MODEL 7
REMARK VINA RESULT:      -5.7     12.900     13.902
REMARK  4 active torsions:
REMARK  status: ('A' for Active; 'I' for Inactive)
REMARK    1  A    between atoms: S1_1  and  C3_7 
REMARK    2  A    between atoms: S1_1  and  C9_13 
REMARK    3  A    between atoms: C1_5  and  C2_6 
REMARK    4  A    between atoms: C1_5  and  C3_7 
ROOT
ATOM      1  C3  UNK     1     -31.555  14.586  -3.667  1.00  0.00     0.085 C 
ENDROOT
BRANCH   1   2
ATOM      2  S1  UNK     1     -30.938  12.874  -3.679  1.00  0.00    -0.107 SA
BRANCH   2   3
ATOM      3  C9  UNK     1     -32.469  11.950  -3.716  1.00  0.00     0.134 A 
ATOM      4  N1  UNK     1     -33.639  12.484  -4.078  1.00  0.00    -0.149 NA
ATOM      5  N2  UNK     1     -34.454  11.425  -3.944  1.00  0.00    -0.196 N 
ATOM      6  N3  UNK     1     -33.929  10.260  -3.533  1.00  0.00    -0.167 NA
ATOM      7  H11 UNK     1     -35.444  11.503  -4.149  1.00  0.00     0.213 HD
ATOM      8  C10 UNK     1     -32.646  10.600  -3.385  1.00  0.00     0.180 A 
ENDBRANCH   2   3
ENDBRANCH   1   2
BRANCH   1   9
ATOM      9  C1  UNK     1     -31.379  15.264  -2.297  1.00  0.00     0.049 C 
BRANCH   9  10
ATOM     10  C2  UNK     1     -32.615  15.882  -1.736  1.00  0.00    -0.057 A 
ATOM     11  C4  UNK     1     -33.691  15.075  -1.361  1.00  0.00     0.007 A 
ATOM     12  C6  UNK     1     -34.847  15.653  -0.837  1.00  0.00     0.001 A 
ATOM     13  C8  UNK     1     -34.927  17.038  -0.687  1.00  0.00     0.000 A 
ATOM     14  C7  UNK     1     -33.853  17.844  -1.061  1.00  0.00     0.001 A 
ATOM     15  C5  UNK     1     -32.697  17.266  -1.585  1.00  0.00     0.007 A 
ENDBRANCH   9  10
ENDBRANCH   1   9
TORSDOF 4
ENDMDL
MODEL 8
REMARK VINA RESULT:      -5.6      6.269      8.163
REMARK  4 active torsions:
REMARK  status: ('A' for Active; 'I' for Inactive)
REMARK    1  A    between atoms: S1_1  and  C3_7 
REMARK    2  A    between atoms: S1_1  and  C9_13 
REMARK    3  A    between atoms: C1_5  and  C2_6 
REMARK    4  A    between atoms: C1_5  and  C3_7 
ROOT
ATOM      1  C3  UNK     1     -30.640  20.105 -14.456  1.00  0.00     0.085 C 
ENDROOT
BRANCH   1   2
ATOM      2  S1  UNK     1     -31.875  21.130 -13.599  1.00  0.00    -0.107 SA
BRANCH   2   3
ATOM      3  C9  UNK     1     -31.057  21.433 -12.038  1.00  0.00     0.134 A 
ATOM      4  N1  UNK     1     -31.330  22.482 -11.258  1.00  0.00    -0.149 NA
ATOM      5  N2  UNK     1     -30.483  22.269 -10.238  1.00  0.00    -0.196 N 
ATOM      6  N3  UNK     1     -29.689  21.188 -10.280  1.00  0.00    -0.167 NA
ATOM      7  H11 UNK     1     -30.443  22.911  -9.454  1.00  0.00     0.213 HD
ATOM      8  C10 UNK     1     -30.059  20.647 -11.444  1.00  0.00     0.180 A 
ENDBRANCH   2   3
ENDBRANCH   1   2
BRANCH   1   9
ATOM      9  C1  UNK     1     -29.989  20.838 -15.642  1.00  0.00     0.049 C 
BRANCH   9  10
ATOM     10  C2  UNK     1     -30.706  20.694 -16.942  1.00  0.00    -0.057 A 
ATOM     11  C4  UNK     1     -32.042  20.291 -16.961  1.00  0.00     0.007 A 
ATOM     12  C6  UNK     1     -32.712  20.156 -18.177  1.00  0.00     0.001 A 
ATOM     13  C8  UNK     1     -32.046  20.424 -19.374  1.00  0.00     0.000 A 
ATOM     14  C7  UNK     1     -30.711  20.826 -19.354  1.00  0.00     0.001 A 
ATOM     15  C5  UNK     1     -30.041  20.961 -18.138  1.00  0.00     0.007 A 
ENDBRANCH   9  10
ENDBRANCH   1   9
TORSDOF 4
ENDMDL
MODEL 9
REMARK VINA RESULT:      -5.6      5.154      7.855
REMARK  4 active torsions:
REMARK  status: ('A' for Active; 'I' for Inactive)
REMARK    1  A    between atoms: S1_1  and  C3_7 
REMARK    2  A    between atoms: S1_1  and  C9_13 
REMARK    3  A    between atoms: C1_5  and  C2_6 
REMARK    4  A    between atoms: C1_5  and  C3_7 
ROOT
ATOM      1  C3  UNK     1     -30.500  19.646 -13.928  1.00  0.00     0.085 C 
ENDROOT
BRANCH   1   2
ATOM      2  S1  UNK     1     -30.248  20.570 -12.381  1.00  0.00    -0.107 SA
BRANCH   2   3
ATOM      3  C9  UNK     1     -31.914  21.115 -12.023  1.00  0.00     0.134 A 
ATOM      4  N1  UNK     1     -32.541  20.852 -10.874  1.00  0.00    -0.149 NA
ATOM      5  N2  UNK     1     -33.723  21.454 -11.086  1.00  0.00    -0.196 N 
ATOM      6  N3  UNK     1     -33.923  22.079 -12.256  1.00  0.00    -0.167 NA
ATOM      7  H11 UNK     1     -34.448  21.436 -10.377  1.00  0.00     0.213 HD
ATOM      8  C10 UNK     1     -32.754  21.860 -12.863  1.00  0.00     0.180 A 
ENDBRANCH   2   3
ENDBRANCH   1   2
BRANCH   1   9
ATOM      9  C1  UNK     1     -29.977  20.407 -15.158  1.00  0.00     0.049 C 
BRANCH   9  10
ATOM     10  C2  UNK     1     -30.879  20.383 -16.346  1.00  0.00    -0.057 A 
ATOM     11  C4  UNK     1     -32.092  19.695 -16.287  1.00  0.00     0.007 A 
ATOM     12  C6  UNK     1     -32.936  19.672 -17.397  1.00  0.00     0.001 A 
ATOM     13  C8  UNK     1     -32.566  20.336 -18.568  1.00  0.00     0.000 A 
ATOM     14  C7  UNK     1     -31.353  21.023 -18.627  1.00  0.00     0.001 A 
ATOM     15  C5  UNK     1     -30.510  21.046 -17.516  1.00  0.00     0.007 A 
ENDBRANCH   9  10
ENDBRANCH   1   9
TORSDOF 4
ENDMDL
